geometry optimzed in LAMMPS
_audit_creation_date              2020-12-01 
_audit_creation_method            'lammps2cif' 
_symmetry_space_group_name_H-M    'P1' 
_symmetry_Int_Tables_number       1 
_symmetry_cell_setting            triclinic 
loop_ 
_symmetry_equiv_pos_as_xyz 
  x,y,z 
_cell_length_a                    29.46214657 
_cell_length_b                    29.68821844589142 
_cell_length_c                    36.119740318017094 
_cell_angle_alpha                 90.69789775634021 
_cell_angle_beta                  89.62278307150248 
_cell_angle_gamma                 90.22696769715105 
loop_ 
_atom_site_label 
_atom_site_type_symbol 
_atom_site_fract_x 
_atom_site_fract_y 
_atom_site_fract_z 
_atom_site_charge 
O1          O  0.85179446  0.04246943  0.49266759    -0.81000
C2          C  0.90492297  0.10597623  0.13154660     0.98400
O3          O  0.93285771  0.10387779  0.10470250    -0.70100
O4          O  0.94812181  0.03062287  0.06691696    -0.73700
Al5        Al  0.92571999  0.08626946  0.05346926     1.49000
C6          C  0.94210813  0.99767814  0.04577946     0.93600
O7          O  0.82528143  0.99658367  0.08739634    -0.79900
O8          O  0.79199484  0.11409704  0.04115958    -0.73500
Al9        Al  0.84539724  0.01924950  0.03938386     1.90100
O10         O  0.79188687  0.06035703  0.10306273    -0.72500
O11         O  0.85575511  0.16358079  0.06984309    -0.72400
O12         O  0.86266100  0.10449631  0.12651850    -0.78000
O13         O  0.91545729  0.14420264  0.03807878    -0.76200
O14         O  0.86727491  0.07097263  0.05884524    -1.12400
O15         O  0.91347894  0.08333067  0.50227138    -0.71600
C16         C  0.88565958  0.06384715  0.48072277     0.99200
C17         C  0.79519173  0.01810533  0.10605391     0.95600
Al18       Al  0.82914373  0.10748258  0.08317516     1.55600
O19         O  0.90189424  0.98491254  0.03935967    -0.76200
C20         C  0.88816593  0.17348520  0.04884992     0.99700
C21         C  0.77121144  0.08153559  0.02634656     0.94600
O22         O  0.78519739  0.04162419  0.03001313    -0.81500
O23         O  0.63261777  0.07557395  0.28259886    -0.81000
C24         C  0.59823102  0.09873488  0.13400512     0.98400
O25         O  0.57024734  0.10792675  0.15960440    -0.70100
O26         O  0.55186476  0.04511936  0.20707188    -0.73700
Al27       Al  0.57396026  0.10371479  0.21157266     1.49000
C28         C  0.55935063  0.01687362  0.23180298     0.93600
O29         O  0.68212814  0.01097780  0.19977483    -0.79900
O30         O  0.70454483  0.14138142  0.22023373    -0.73500
Al31       Al  0.65451280  0.04624314  0.24025189     1.90100
O32         O  0.71277715  0.06976686  0.17316202    -0.72500
O33         O  0.64130993  0.17517232  0.18040462    -0.72400
O34         O  0.64030118  0.09641275  0.13926726    -0.78000
O35         O  0.58604663  0.16353118  0.21900376    -0.76200
O36         O  0.63279215  0.08864924  0.21074818    -1.12400
O37         O  0.56780216  0.10301489  0.26295493    -0.71600
C38         C  0.59490358  0.09428907  0.28836048     0.99200
C39         C  0.71245056  0.02804384  0.17880036     0.95600
Al40       Al  0.67113775  0.11785713  0.18059598     1.55600
O41         O  0.59994143  0.00869635  0.24118016    -0.76200
C42         C  0.61313629  0.18976432  0.20375829     0.99700
C43         C  0.72185225  0.11840953  0.24540187     0.94600
O44         O  0.71083493  0.07741457  0.24991722    -0.81500
O45         O  0.20068591  0.96074290  0.00452064    -0.81000
C46         C  0.08455357  0.90198502  0.39451030     0.98400
O47         O  0.12641835  0.89223573  0.39883997    -0.70100
O48         O  0.18812145  0.95688649  0.40748574    -0.73700
Al49       Al  0.17039816  0.90657031  0.43677335     1.49000
C50         C  0.19451491  0.99775201  0.41611309     0.93600
O51         O  0.08025579  0.01655795  0.47355855    -0.79900
O52         O  0.09003697  0.88021864  0.00471007    -0.73500
Al53       Al  0.14433690  0.97643754  0.98498545     1.90100
O54         O  0.04183259  0.95591043  0.48508084    -0.72500
O55         O  0.09146427  0.84825654  0.45938429    -0.72400
O56         O  0.05956862  0.91534673  0.42118483    -0.78000
O57         O  0.16377672  0.85138398  0.46378400    -0.76200
O58         O  0.12895371  0.93587295  0.46364973    -1.12400
O59         O  0.21836942  0.91616726  0.46979677    -0.71600
C60         C  0.22760007  0.92877460  0.99961094     0.99200
C61         C  0.04432370  0.99751865  0.48597924     0.95600
Al62       Al  0.07590334  0.90779530  0.47103478     1.55600
O63         O  0.17164034  0.01600714  0.44255241    -0.76200
C64         C  0.12748068  0.83035452  0.46874909     0.99700
C65         C  0.10191986  0.90600475  0.03151511     0.94600
O66         O  0.11789912  0.94577030  0.02672854    -0.81500
O67         O  0.29868236  0.96960583  0.26393401    -0.81000
C68         C  0.39157465  0.92187003  0.38619585     0.98400
O69         O  0.35268547  0.90563817  0.37740866    -0.70100
O70         O  0.28884021  0.95804750  0.35229147    -0.73700
Al71       Al  0.31795009  0.90725149  0.33216716     1.49000
C72         C  0.28932440  0.99995521  0.34806635     0.93600
O73         O  0.41042527  0.01861212  0.29833795    -0.79900
O74         O  0.41143902  0.89509809  0.26160242    -0.73500
Al75       Al  0.35343703  0.98774707  0.28533050     1.90100
O76         O  0.45284072  0.95977630  0.29543264    -0.72500
O77         O  0.40459898  0.85473396  0.32913591    -0.72400
O78         O  0.42191040  0.93194882  0.36215540    -0.78000
O79         O  0.33519910  0.84970238  0.31317859    -0.76200
O80         O  0.36240331  0.93727219  0.31030298    -1.12400
O81         O  0.28022711  0.90622560  0.29054997    -0.71600
C82         C  0.27496612  0.93468892  0.26555154     0.99200
C83         C  0.44816452  0.00047750  0.28980876     0.95600
Al84       Al  0.41747437  0.91316298  0.31221726     1.55600
O85         O  0.31836456  0.01824645  0.32601653    -0.76200
C86         C  0.37315787  0.83195631  0.31590506     0.99700
C87         C  0.39913636  0.92138527  0.23567182     0.94600
O88         O  0.38230657  0.96052175  0.24211619    -0.81500
O89         O  0.47127886  0.88681512  0.48980234    -0.81000
C90         C  0.39840229  0.91492018  0.12970626     0.98400
O91         O  0.39861750  0.94251145  0.10303688    -0.70100
O92         O  0.46727833  0.96770773  0.06239121    -0.73700
Al93       Al  0.41445026  0.93608666  0.05131530     1.49000
C94         C  0.50022554  0.96475380  0.04071013     0.93600
O95         O  0.51446676  0.85192735  0.08971370    -0.79900
O96         O  0.40429657  0.80149876  0.03800806    -0.73500
Al97       Al  0.49198434  0.86600884  0.03943050     1.90100
O98         O  0.45571343  0.80796219  0.10129180    -0.72500
O99         O  0.34565863  0.85558242  0.06621354    -0.72400
O100        O  0.40217230  0.87292217  0.12439499    -0.78000
O101        O  0.35727836  0.91820156  0.03765588    -0.73000
O102        O  0.43699522  0.88092790  0.05721214    -1.12400
O103        O  0.42776654  0.94626313  0.50072854    -0.71600
C104        C  0.44848383  0.91977298  0.47865937     0.99200
C105        C  0.49585618  0.82009677  0.10841147     0.95600
Al106      Al  0.40477392  0.83851508  0.08049288     1.55600
O107        O  0.51940535  0.92672390  0.03787105    -0.76200
C108        C  0.33172573  0.88669326  0.04646528     0.99700
C109        C  0.43975614  0.78526357  0.02379447     0.94600
O110        O  0.47811471  0.80297209  0.03025811    -0.81500
O111        O  0.47839559  0.65305792  0.28778600    -0.81000
C112        C  0.41799752  0.62351007  0.14372227     0.98400
O113        O  0.42021625  0.59238787  0.16774438    -0.70100
O114        O  0.48652586  0.56999361  0.21143985    -0.73700
Al115      Al  0.42981420  0.59426677  0.22089082     1.49000
C116        C  0.51868440  0.57635186  0.23304552     0.93600
O117        O  0.52024593  0.69437992  0.19245209    -0.79900
O118        O  0.40225367  0.72380814  0.24431313    -0.73500
Al119      Al  0.49750586  0.67191139  0.24054166     1.90100
O120        O  0.45793692  0.73306721  0.18286850    -0.72500
O121        O  0.35210117  0.66665765  0.20956969    -0.72400
O122        O  0.41459844  0.66455908  0.15280260    -0.78000
O123        O  0.36977443  0.60222175  0.23215406    -0.76200
O124        O  0.44573058  0.65231834  0.22006374    -1.12400
O125        O  0.43741347  0.59198843  0.27387990    -0.71600
C126        C  0.45519421  0.61909462  0.29731291     0.99200
C127        C  0.49925464  0.72565963  0.17538750     0.95600
Al128      Al  0.40982026  0.69314100  0.19912070     1.55600
O129        O  0.53254176  0.61629270  0.23789013    -0.76200
C130        C  0.34097240  0.63128477  0.22573856     0.99700
C131        C  0.43452991  0.74161233  0.26182932     0.94600
O132        O  0.47517477  0.73081666  0.25459854    -0.81500
O133        O  0.53123705  0.23055553  0.99674020    -0.81000
C134        C  0.59731746  0.10106423  0.38911450     0.98400
O135        O  0.61595087  0.13973310  0.39114825    -0.70100
O136        O  0.55411314  0.20139092  0.40372106    -0.73700
Al137      Al  0.61036830  0.18695800  0.42691575     1.49000
C138        C  0.52161203  0.22035027  0.42075965     0.93600
O139        O  0.50201931  0.11690186  0.48424473    -0.79900
O140        O  0.56212806  0.09430595  0.02402729    -0.73500
Al141      Al  0.50969093  0.17120759  0.98393317     1.90100
O142        O  0.55737959  0.06836035  0.48530396    -0.72500
O143        O  0.66529022  0.10652396  0.44311054    -0.72400
O144        O  0.58486589  0.07961845  0.41729994    -0.78000
O145        O  0.66974470  0.17868208  0.44868838    -0.76200
O146        O  0.58525565  0.15073618  0.46037024    -1.12400
O147        O  0.60831991  0.24039417  0.45503282    -0.71600
C148        C  0.57133084  0.24403929  0.00315808     0.99200
C149        C  0.51724856  0.07794650  0.49290889     0.95600
Al150      Al  0.60738715  0.09482446  0.46375954     1.55600
O151        O  0.51151488  0.20810858  0.45386041    -0.76200
C152        C  0.68682638  0.14048836  0.45394194     0.99700
C153        C  0.54282267  0.12242227  0.04518157     0.94600
O154        O  0.52286391  0.15653900  0.03313521    -0.81500
O155        O  0.54918095  0.31711927  0.26198682    -0.81000
C156        C  0.61510255  0.40362604  0.38409498     0.98400
O157        O  0.62821253  0.36417459  0.37390997    -0.70100
O158        O  0.56626345  0.30682636  0.35225245    -0.73700
Al159      Al  0.61791596  0.32937494  0.32857571     1.49000
C160        C  0.52403493  0.31051657  0.34951656     0.93600
O161        O  0.51284334  0.43057575  0.30101345    -0.79900
O162        O  0.63442740  0.42267534  0.25980445    -0.73500
Al163      Al  0.53776264  0.37210904  0.28543547     1.90100
O164        O  0.57494235  0.46854963  0.29612050    -0.72500
O165        O  0.67845957  0.40930792  0.32421379    -0.72400
O166        O  0.60483110  0.43408503  0.36097293    -0.78000
O167        O  0.67473573  0.34076841  0.30563416    -0.76200
O168        O  0.59065473  0.37627343  0.30847376    -1.12400
O169        O  0.61047337  0.29022740  0.28713619    -0.71600
C170        C  0.58017002  0.28867637  0.26282171     0.99200
C171        C  0.53325457  0.46663545  0.29188351     0.95600
Al172      Al  0.62003867  0.42888297  0.31054499     1.55600
O173        O  0.50678666  0.33910969  0.32698345    -0.76200
C174        C  0.69638652  0.37667199  0.30796621     0.99700
C175        C  0.60561716  0.41353335  0.23456438     0.94600
O176        O  0.56523250  0.39938366  0.24169159    -0.81500
O177        O  0.04933970  0.86476297  0.28176113    -0.81000
C178        C  0.10154481  0.90171052  0.13635905     0.98400
O179        O  0.09761975  0.93065804  0.16211202    -0.70100
O180        O  0.03465758  0.95284164  0.20926810    -0.73700
Al181      Al  0.09132609  0.92600501  0.21404360     1.49000
C182        C  0.00240684  0.94610309  0.23098313     0.93600
O183        O  0.99462708  0.83310217  0.18781923    -0.79900
O184        O  0.11286704  0.79129227  0.22887244    -0.73500
Al185      Al  0.02308380  0.85008908  0.23496366     1.90100
O186        O  0.05459798  0.79445531  0.16867607    -0.72500
O187        O  0.16494305  0.84803305  0.19913493    -0.72400
O188        O  0.10463799  0.85999585  0.14252151    -0.78000
O189        O  0.15163222  0.91504072  0.22049831    -0.76200
O190        O  0.07358975  0.86841935  0.21157948    -1.12400
O191        O  0.08809099  0.92654816  0.26648936    -0.71600
C192        C  0.07423020  0.89845512  0.29019395     0.99200
C193        C  0.01296097  0.80407474  0.16587655     0.95600
Al194      Al  0.10634260  0.82709877  0.18674715     1.55600
O195        O  0.99129910  0.90638355  0.23850831    -0.76200
C196        C  0.17829867  0.88354373  0.21427891     0.99700
C197        C  0.08069251  0.77509649  0.24726244     0.94600
O198        O  0.04090046  0.78902412  0.24270981    -0.81500
O199        O  0.05898342  0.62329549  0.49391987    -0.81000
C200        C  0.10482843  0.63105476  0.13642657     0.98400
O201        O  0.09442474  0.59748270  0.11526161    -0.70100
O202        O  0.06310704  0.55587256  0.04999931    -0.73700
Al203      Al  0.10904190  0.59701005  0.06367071     1.49000
C204        C  0.02188723  0.55917154  0.04374859     0.93600
O205        O  0.99913505  0.68314446  0.07893399    -0.79900
O206        O  0.10668658  0.73094571  0.03373164    -0.73500
Al207      Al  0.02897799  0.65381626  0.03623502     1.90100
O208        O  0.05690799  0.72481580  0.09790190    -0.72500
O209        O  0.16787755  0.68286280  0.05706145    -0.72400
O210        O  0.11718971  0.66928844  0.12393497    -0.78000
O211        O  0.16830490  0.61514323  0.07653186    -0.76200
O212        O  0.08172938  0.64994902  0.05921750    -1.12400
O213        O  0.12610055  0.59713862  0.51348639    -0.71600
C214        C  0.09939015  0.60885402  0.48766421     0.99200
C215        C  0.01541519  0.71434299  0.09969411     0.95600
Al216      Al  0.10993632  0.69825713  0.07710893     1.55600
O217        O  0.00289995  0.59638796  0.05094691    -0.76200
C218        C  0.18824896  0.64654136  0.06075613     0.99700
C219        C  0.07592611  0.73411331  0.01029726     0.94600
O220        O  0.04054036  0.71046255  0.01273268    -0.81500
O221        O  0.96190608  0.20702158  0.27171384    -0.81000
C222        C  0.90089602  0.11374652  0.38664511     0.98400
O223        O  0.88552642  0.15234497  0.37731326    -0.70100
O224        O  0.94216283  0.21384029  0.35344541    -0.73700
Al225      Al  0.89034127  0.18597349  0.33192806     1.49000
C226        C  0.98382239  0.20456779  0.35565624     0.93600
O227        O  0.00038406  0.09028219  0.29984034    -0.79900
O228        O  0.87917653  0.09470345  0.26219055    -0.73500
Al229      Al  0.97337687  0.14846170  0.28968136     1.90100
O230        O  0.94012331  0.04991408  0.29539121    -0.72500
O231        O  0.83522404  0.10099639  0.32993079    -0.72400
O232        O  0.91110580  0.08260676  0.36310153    -0.78000
O233        O  0.83278706  0.16901906  0.31162441    -0.76200
O234        O  0.92037981  0.14083661  0.31172317    -1.12400
O235        O  0.89276233  0.22217973  0.28994120    -0.71600
C236        C  0.92645479  0.23007747  0.26970423     0.99200
C237        C  0.98145476  0.05387048  0.29018134     0.95600
Al238      Al  0.89436853  0.08710821  0.31286214     1.55600
O239        O  0.00154053  0.17421184  0.33463084    -0.76200
C240        C  0.81346711  0.13197654  0.31604827     0.99700
C241        C  0.90702374  0.10817929  0.23707364     0.94600
O242        O  0.94634928  0.12515825  0.24430863    -0.81500
O243        O  0.97199748  0.29598258  0.99777438    -0.81000
C244        C  0.90497257  0.39409470  0.38553891     0.98400
O245        O  0.88779740  0.35599545  0.39454306    -0.70100
O246        O  0.94200865  0.29297668  0.41780215    -0.73700
Al247      Al  0.89098898  0.32136845  0.43944860     1.49000
C248        C  0.98435175  0.29867595  0.41808235     0.93600
O249        O  0.00408657  0.41216346  0.47133076    -0.79900
O250        O  0.89218943  0.40957571  0.01081498    -0.73500
Al251      Al  0.98485517  0.35534124  0.98126513     1.90100
O252        O  0.94651011  0.45591517  0.47683166    -0.72500
O253        O  0.83871159  0.40729786  0.44405317    -0.72400
O254        O  0.91581921  0.42444778  0.40946638    -0.78000
O255        O  0.83396857  0.33847416  0.45992086    -0.76200
O256        O  0.92191702  0.36561246  0.46097892    -1.12400
O257        O  0.89107690  0.28426596  0.48055549    -0.71600
C258        C  0.93641837  0.27262795  0.99811874     0.99200
C259        C  0.98775720  0.44975723  0.48088944     0.95600
Al260      Al  0.89825715  0.42055511  0.45989109     1.55600
O261        O  0.00259439  0.32674066  0.44072918    -0.76200
C262        C  0.81655256  0.37644203  0.45860962     0.99700
C263        C  0.91927785  0.39471740  0.03527825     0.94600
O264        O  0.95819063  0.37718667  0.02755973    -0.81500
O265        O  0.87551137  0.47221594  0.28028147    -0.81000
C266        C  0.91323801  0.39893261  0.14011716     0.98400
O267        O  0.93947102  0.39549169  0.16769495    -0.70100
O268        O  0.96372226  0.46627485  0.20602177    -0.73700
Al269      Al  0.93323550  0.41417263  0.21885862     1.49000
C270        C  0.95922918  0.50172286  0.22456102     0.93600
O271        O  0.84042018  0.51471843  0.18488950    -0.79900
O272        O  0.80065830  0.39837084  0.22949396    -0.73500
Al273      Al  0.86091648  0.48977665  0.23208267     1.90100
O274        O  0.80172679  0.45410321  0.17002081    -0.72500
O275        O  0.85861269  0.34504269  0.19644382    -0.72400
O276        O  0.87151976  0.40794856  0.14396136    -0.78000
O277        O  0.91365132  0.35870467  0.23444443    -0.76200
O278        O  0.87767998  0.43652163  0.21235612    -1.12400
O279        O  0.93481024  0.42844641  0.27059997    -0.71600
C280        C  0.90767838  0.44890330  0.29216941     0.99200
C281        C  0.80707252  0.49615456  0.16810716     0.95600
Al282      Al  0.83685364  0.40433827  0.18695656     1.55600
O283        O  0.92011370  0.51865064  0.22908507    -0.76200
C284        C  0.88641870  0.33183253  0.21993476     0.99700
C285        C  0.78570103  0.43110226  0.24847635     0.94600
O286        O  0.80034691  0.47075193  0.24384129    -0.81500
O287        O  0.64772084  0.48590086  0.48821030    -0.81000
C288        C  0.60979922  0.41601993  0.12916669     0.98400
O289        O  0.58193902  0.41362211  0.10253835    -0.70100
O290        O  0.56271557  0.48498631  0.06524566    -0.73700
Al291      Al  0.58667885  0.42976073  0.05114293     1.49000
C292        C  0.56652692  0.51664514  0.04304784     0.93600
O293        O  0.68872662  0.52368637  0.08110902    -0.79900
O294        O  0.71723269  0.40333118  0.03489194    -0.73500
Al295      Al  0.66396634  0.49912525  0.03435656     1.90100
O296        O  0.72331350  0.46058541  0.09435130    -0.72500
O297        O  0.65633225  0.35564609  0.07069356    -0.72400
O298        O  0.65200316  0.42098934  0.12374011    -0.78000
O299        O  0.59996973  0.37238792  0.03529720    -0.76200
O300        O  0.64422883  0.44770853  0.05499721    -1.12400
O301        O  0.58513984  0.44684928  0.49825839    -0.71600
C302        C  0.61400006  0.46403318  0.47655476     0.99200
C303        C  0.72089285  0.50280103  0.09721279     0.95600
Al304      Al  0.68367729  0.41329264  0.07895388     1.55600
O305        O  0.60609244  0.53284703  0.03792387    -0.76200
C306        C  0.62544343  0.34387932  0.04901159     0.99700
C307        C  0.73461719  0.43453077  0.01592295     0.94600
O308        O  0.72270908  0.47521948  0.02077482    -0.81500
O309        O  0.22008498  0.54356531  0.27714560    -0.81000
C310        C  0.10561640  0.60986182  0.38259958     0.98400
O311        O  0.14609808  0.62441808  0.37678805    -0.70100
O312        O  0.21254495  0.56753160  0.36246988    -0.73700
Al313      Al  0.18828834  0.61607529  0.33576133     1.49000
C314        C  0.20813881  0.52533355  0.36321956     0.93600
O315        O  0.10019744  0.50034127  0.29989216    -0.79900
O316        O  0.10701503  0.61658726  0.25488680    -0.73500
Al317      Al  0.15990328  0.52904516  0.29259271     1.90100
O318        O  0.06002271  0.55940660  0.29081337    -0.72500
O319        O  0.10397398  0.66767338  0.31912014    -0.72400
O320        O  0.07961581  0.59691816  0.35643556    -0.78000
O321        O  0.17543458  0.67089502  0.31048862    -0.76200
O322        O  0.14737842  0.58313638  0.31188267    -1.12400
O323        O  0.23234691  0.61155216  0.29881630    -0.71600
C324        C  0.24268341  0.57954973  0.27760490     0.99200
C325        C  0.06438609  0.51831776  0.28761001     0.95600
Al326      Al  0.09297196  0.60748308  0.30617137     1.55600
O327        O  0.18283896  0.50478137  0.33968460    -0.76200
C328        C  0.13738822  0.68835608  0.30713731     0.99700
C329        C  0.12270400  0.58566486  0.23313107     0.94600
O330        O  0.14064585  0.54945158  0.24490898    -0.81500
O331        O  0.29538169  0.54707624  0.00257841    -0.81000
C332        C  0.39549274  0.61374214  0.38991380     0.98400
O333        O  0.35561632  0.62701549  0.39938212    -0.70100
O334        O  0.29475232  0.56989944  0.42510509    -0.73700
Al335      Al  0.32140688  0.62275787  0.44534468     1.49000
C336        C  0.30358008  0.52841415  0.42427439     0.93600
O337        O  0.42054624  0.51721013  0.47747599    -0.79900
O338        O  0.43354419  0.58547184  0.02650557    -0.73500
Al339      Al  0.35586325  0.52549348  0.99042473     1.90100
O340        O  0.45968979  0.57828341  0.48025437    -0.72500
O341        O  0.40586298  0.68035508  0.44841734    -0.72400
O342        O  0.42647626  0.60531118  0.41360128    -0.78000
O343        O  0.33604285  0.68138152  0.46437173    -0.76200
O344        O  0.36759232  0.59506204  0.46589066    -1.12400
O345        O  0.28500337  0.62098216  0.48785732    -0.71600
C346        C  0.28311790  0.58750459  0.00864128     0.99200
C347        C  0.45690684  0.53744351  0.48597346     0.95600
Al348      Al  0.42106286  0.62232967  0.46419734     1.55600
O349        O  0.33458917  0.51235830  0.44504278    -0.76200
C350        C  0.37323114  0.70123722  0.46176105     0.99700
C351        C  0.40569897  0.56730336  0.04913475     0.94600
O352        O  0.37177730  0.54481974  0.03827492    -0.81500
C353        C  0.23193546  0.50267410  0.39443386    -0.15600
C354        C  0.27821771  0.50134458  0.39570635    -0.30800
H355        H  0.21461229  0.50737877  0.42083758     0.13400
H356        H  0.29620278  0.49774411  0.36950277     0.14000
C357        C  0.52735172  0.52806041  0.01785295    -0.15600
C358        C  0.49273648  0.49836880  0.00943472    -0.30800
H359        H  0.52907299  0.55993855  0.00355967     0.13400
H360        H  0.49520243  0.48022396  0.50986290     0.14000
C361        C  0.99870890  0.52066212  0.24486412    -0.15600
C362        C  0.02835467  0.49521151  0.26521104    -0.30800
H363        H  0.00009995  0.55715643  0.24662552     0.13400
H364        H  0.02660570  0.45871676  0.26437415     0.14000
C365        C  0.76795559  0.52178406  0.15219291    -0.15600
C366        C  0.76096130  0.52524514  0.11530078    -0.30800
H367        H  0.73742284  0.51922578  0.16909380     0.13400
H368        H  0.79120935  0.52526343  0.09794964     0.14000
C369        C  0.77472959  0.38624600  0.47914564    -0.15600
C370        C  0.77066790  0.42442338  0.98894050    -0.30800
H371        H  0.75423223  0.35832071  0.48915198     0.13400
H372        H  0.78975602  0.45290238  0.97818558     0.14000
C373        C  0.90420717  0.39901948  0.07355125    -0.15600
C374        C  0.93125876  0.39218863  0.10257056    -0.30800
H375        H  0.86928115  0.40978892  0.07779161     0.13400
H376        H  0.96652779  0.38252640  0.09868849     0.14000
C377        C  0.91150989  0.40224602  0.34601786    -0.15600
C378        C  0.91162653  0.44366873  0.33210701    -0.30800
H379        H  0.91156539  0.37316237  0.32736229     0.13400
H380        H  0.90661749  0.47288007  0.35010135     0.14000
C381        C  0.00882369  0.22810072  0.38626721    -0.15600
C382        C  0.01004713  0.27391064  0.38837155    -0.30800
H383        H  0.00728735  0.21025872  0.41232466     0.13400
H384        H  0.01082085  0.29162640  0.36223679     0.14000
C385        C  0.92583576  0.26861923  0.24532130    -0.15600
C386        C  0.88699878  0.28525159  0.23219752    -0.30800
H387        H  0.95780139  0.28615335  0.24069689     0.13400
H388        H  0.85525343  0.26672778  0.23446810     0.14000
C389        C  0.24592465  0.59671993  0.03471007    -0.15600
C390        C  0.23238761  0.63894232  0.04287623    -0.30800
H391        H  0.22723028  0.56796098  0.04534166     0.13400
H392        H  0.25032812  0.66774560  0.03154625     0.14000
C393        C  0.02008266  0.48807723  0.00386338    -0.15600
C394        C  0.99787233  0.52058368  0.02463781    -0.30800
H395        H  0.05139246  0.48413674  0.49845356     0.13400
H396        H  0.96105113  0.52082090  0.02521226     0.14000
C397        C  0.11615160  0.60628436  0.44945504    -0.15600
C398        C  0.08804094  0.60895289  0.42056666    -0.30800
H399        H  0.15249091  0.60260625  0.44496085     0.13400
H400        H  0.05149697  0.60973882  0.42480842     0.14000
C401        C  0.11922814  0.58970714  0.19281993    -0.15600
C402        C  0.10408873  0.62679348  0.17673988    -0.30800
H403        H  0.13043190  0.56139594  0.17570744     0.13400
H404        H  0.09557558  0.65635348  0.19341464     0.14000
C405        C  0.98049582  0.98439650  0.25082264    -0.15600
C406        C  0.00486062  0.01692146  0.26920315    -0.30800
H407        H  0.94380786  0.98309981  0.25384381     0.13400
H408        H  0.04167044  0.01737762  0.26718087     0.14000
C409        C  0.98863241  0.73684494  0.12991159    -0.15600
C410        C  0.98895553  0.78243429  0.13399194    -0.30800
H411        H  0.98639479  0.71716800  0.15501374     0.13400
H412        H  0.99116568  0.80195840  0.10880041     0.14000
C413        C  0.08890023  0.73927971  0.27360774    -0.15600
C414        C  0.13070653  0.72933846  0.28574546    -0.30800
H415        H  0.05949895  0.72012289  0.28285769     0.13400
H416        H  0.16021323  0.74833211  0.27650610     0.14000
C417        C  0.73844900  0.38255956  0.28710234    -0.15600
C418        C  0.75005882  0.42385517  0.27579335    -0.30800
H419        H  0.75595917  0.35288604  0.27645269     0.13400
H420        H  0.73192370  0.45340458  0.28599738     0.14000
C421        C  0.59269686  0.41222371  0.16727007    -0.15600
C422        C  0.62019959  0.41974305  0.19614294    -0.30800
H423        H  0.55741976  0.40277407  0.17162369     0.13400
H424        H  0.65521495  0.43003282  0.19155113     0.14000
C425        C  0.61262755  0.41380664  0.42378986    -0.15600
C426        C  0.61008091  0.45609449  0.43685482    -0.30800
H427        H  0.61542150  0.38602068  0.44291882     0.13400
H428        H  0.61142256  0.48460359  0.41832873     0.14000
C429        C  0.49763325  0.27396766  0.36916873    -0.15600
C430        C  0.50442526  0.26475968  0.40574719    -0.30800
H431        H  0.48892495  0.24562370  0.35129156     0.13400
H432        H  0.51181571  0.29336426  0.42377364     0.14000
C433        C  0.57777011  0.28405939  0.02606442    -0.15600
C434        C  0.61880066  0.29690144  0.03818892    -0.30800
H435        H  0.54855449  0.30591033  0.03001761     0.13400
H436        H  0.64790244  0.27461782  0.03638775     0.14000
C437        C  0.28249239  0.58412577  0.25369858    -0.15600
C438        C  0.29488010  0.62443819  0.24013476    -0.30800
H439        H  0.30312060  0.55440389  0.24867871     0.13400
H440        H  0.27285072  0.65348803  0.24341062     0.14000
C441        C  0.51176282  0.50506820  0.27143116    -0.15600
C442        C  0.53777718  0.53794912  0.25474910    -0.30800
H443        H  0.47525150  0.50486535  0.26779324     0.13400
H444        H  0.57410017  0.53876697  0.25951069     0.14000
C445        C  0.44770720  0.61252822  0.33689890    -0.15600
C446        C  0.40538410  0.60944595  0.35017445    -0.30800
H447        H  0.47595317  0.61817318  0.35559634     0.13400
H448        H  0.37694279  0.60858602  0.33113046     0.14000
C449        C  0.41144948  0.57282075  0.08929097    -0.15600
C450        C  0.41998218  0.61348164  0.10376368    -0.30800
H451        H  0.40191172  0.54517154  0.10723187     0.13400
H452        H  0.42539232  0.64170546  0.08525840     0.14000
C453        C  0.48187708  0.03514871  0.00294419    -0.15600
C454        C  0.51200897  0.00283179  0.01458383    -0.30800
H455        H  0.44819928  0.03605072  0.01525532     0.13400
H456        H  0.54557704  0.00183723  0.00210823     0.14000
C457        C  0.51682818  0.79752071  0.14124163    -0.15600
C458        C  0.51913368  0.75155561  0.14341875    -0.30800
H459        H  0.51430215  0.81653897  0.16703533     0.13400
H460        H  0.52112343  0.73255434  0.11758072     0.14000
C461        C  0.43673036  0.74344301  0.00210858    -0.15600
C462        C  0.38020798  0.74581436  0.47859444    -0.30800
H463        H  0.46688282  0.72257621  0.00042302     0.13400
H464        H  0.35043332  0.76404776  0.48830978     0.14000
C465        C  0.38236096  0.78795598  0.29896011    -0.15600
C466        C  0.42507241  0.77709634  0.28915851    -0.30800
H467        H  0.35375572  0.76824593  0.28879767     0.13400
H468        H  0.45362953  0.79728404  0.29877950     0.14000
C469        C  0.39414947  0.93201164  0.16802584    -0.15600
C470        C  0.40432858  0.90583990  0.19704956    -0.30800
H471        H  0.38349228  0.96663269  0.17240326     0.13400
H472        H  0.41640983  0.87170382  0.19241685     0.14000
C473        C  0.40101525  0.92777150  0.42554180    -0.15600
C474        C  0.44304156  0.92505078  0.43891529    -0.30800
H475        H  0.37214584  0.92911954  0.44449084     0.13400
H476        H  0.47172751  0.91854552  0.42057318     0.14000
C477        C  0.23910423  0.92875174  0.23871311    -0.15600
C478        C  0.22433765  0.88788200  0.22835030    -0.30800
H479        H  0.22191914  0.95897030  0.22957627     0.13400
H480        H  0.24290145  0.85768393  0.23552998     0.14000
C481        C  0.12548260  0.78744501  0.48849050    -0.15600
C482        C  0.08174305  0.76658836  0.98022747    -0.30800
H483        H  0.15605959  0.77474592  0.50129136     0.13400
H484        H  0.05172949  0.78215793  0.96880526     0.14000
C485        C  0.23781838  0.01918990  0.40156880    -0.15600
C486        C  0.24905922  0.02403950  0.36513582    -0.30800
H487        H  0.26610519  0.01459075  0.42026526     0.13400
H488        H  0.22124989  0.02887634  0.34603837     0.14000
C489        C  0.26652447  0.92574657  0.02380642    -0.15600
C490        C  0.28576220  0.88638740  0.03183374    -0.30800
H491        H  0.28349017  0.96986950  0.52512741     0.13400
H492        H  0.26967518  0.85456230  0.02446108     0.14000
C493        C  0.09725474  0.88956568  0.06934025    -0.15600
C494        C  0.10303903  0.91755881  0.09832701    -0.30800
H495        H  0.08950350  0.85412454  0.07344648     0.13400
H496        H  0.10879824  0.95334588  0.09415401     0.14000
C497        C  0.06475889  0.89670562  0.35765907    -0.15600
C498        C  0.09044046  0.90474366  0.32791991    -0.30800
H499        H  0.02919972  0.88752846  0.35484216     0.13400
H500        H  0.12466514  0.91800418  0.33129115     0.14000
C501        C  0.61364411  0.23660839  0.21692700    -0.15600
C502        C  0.57786331  0.25126805  0.23664994    -0.30800
H503        H  0.64505898  0.25585143  0.21596270     0.13400
H504        H  0.54574270  0.23311840  0.23561579     0.14000
C505        C  0.48605651  0.02272591  0.26868273    -0.15600
C506        C  0.52062262  0.99740486  0.25324280    -0.30800
H507        H  0.48445387  0.05868538  0.26377926     0.13400
H508        H  0.52286990  0.96175051  0.25928626     0.14000
C509        C  0.58272485  0.10746295  0.32529696    -0.15600
C510        C  0.59269545  0.08068611  0.35314844    -0.30800
H511        H  0.56984121  0.14135254  0.33001650     0.13400
H512        H  0.60281757  0.04585441  0.34873335     0.14000
C513        C  0.58235089  0.09289116  0.09675826    -0.15600
C514        C  0.54718703  0.11667685  0.08470148    -0.30800
H515        H  0.60464244  0.07488859  0.07760525     0.13400
H516        H  0.52728079  0.13776052  0.10344779     0.14000
C517        C  0.75695617  0.13941361  0.26833575    -0.15600
C518        C  0.76907013  0.12153915  0.30050070    -0.30800
H519        H  0.77543035  0.16809212  0.25721837     0.13400
H520        H  0.75106768  0.09223525  0.31099791     0.14000
C521        C  0.89339601  0.21913934  0.03491097    -0.15600
C522        C  0.93352688  0.23303088  0.02141081    -0.30800
H523        H  0.86339766  0.24014146  0.03279789     0.13400
H524        H  0.96415649  0.21353942  0.02563475     0.14000
C525        C  0.01300020  0.00549177  0.00652772    -0.15600
C526        C  0.98080008  0.97903202  0.02352997    -0.30800
H527        H  0.00447363  0.05636205  0.50835992     0.13400
H528        H  0.97985387  0.94310444  0.01760634     0.14000
C529        C  0.75793077  0.99534304  0.12714948    -0.15600
C530        C  0.75240770  0.00253341  0.16396082    -0.30800
H531        H  0.72713356  0.99079639  0.11113591     0.13400
H532        H  0.78321647  0.00890279  0.17957691     0.14000
C533        C  0.72829896  0.08906854  0.00718301    -0.15600
C534        C  0.72620255  0.13433147  0.47838863    -0.30800
H535        H  0.70587815  0.06016790  0.00388379     0.13400
H536        H  0.74518764  0.16365093  0.48782942     0.14000
C537        C  0.89157685  0.06703763  0.44074580    -0.15600
C538        C  0.90544992  0.10568718  0.42609162    -0.30800
H539        H  0.87806192  0.04030218  0.42310588     0.13400
H540        H  0.91387113  0.13423166  0.44398811     0.14000
C541        C  0.92146517  0.11010207  0.16972639    -0.15600
C542        C  0.89286903  0.10377766  0.19842841    -0.30800
H543        H  0.95709886  0.11757852  0.17432186     0.13400
H544        H  0.85768138  0.09451049  0.19354157     0.14000
O545        O  0.86056915  0.03691819  0.99113553    -0.81000
C546        C  0.89097435  0.11392625  0.63309796     0.98400
O547        O  0.91755198  0.11717753  0.60532944    -0.70100
O548        O  0.94006310  0.04580374  0.56739721    -0.73700
Al549      Al  0.91178008  0.09843742  0.55404405     1.49000
C550        C  0.93570576  0.01153493  0.54744741     0.93600
O551        O  0.81855277  0.00158628  0.58912745    -0.79900
O552        O  0.78057760  0.11831734  0.54244794    -0.73500
Al553      Al  0.83755677  0.02523063  0.54107520     1.90100
O554        O  0.77904978  0.06217796  0.60296715    -0.72500
O555        O  0.83978922  0.17006789  0.57631593    -0.72400
O556        O  0.84886322  0.10689283  0.62935327    -0.78000
O557        O  0.89433679  0.15371977  0.53802040    -0.76200
O558        O  0.85563782  0.07801429  0.56052653    -1.12400
O559        O  0.92607336  0.07166470  0.00152843    -0.71600
C560        C  0.89642293  0.05561547  0.97964956     0.99200
C561        C  0.78633433  0.02066075  0.60705676     0.95600
Al562      Al  0.81538337  0.11142261  0.58574664     1.55600
O563        O  0.89637872  0.99519120  0.54233577    -0.76200
C564        C  0.86890018  0.18189656  0.55295877     0.99700
C565        C  0.76533691  0.08569872  0.52350299     0.94600
O566        O  0.77689498  0.04554256  0.53043834    -0.81500
O567        O  0.63682403  0.07664061  0.78910843    -0.81000
C568        C  0.60204166  0.10630705  0.64037623     0.98400
O569        O  0.57361452  0.11341779  0.66622207    -0.70100
O570        O  0.55320592  0.04933260  0.71291969    -0.73700
Al571      Al  0.57721526  0.10708685  0.71879062     1.49000
C572        C  0.55945666  0.01980765  0.73682704     0.93600
O573        O  0.68125432  0.01167982  0.70454981    -0.79900
O574        O  0.70790246  0.14121459  0.72778296    -0.73500
Al575      Al  0.65614214  0.04692838  0.74617964     1.90100
O576        O  0.71480772  0.07026124  0.67980342    -0.72500
O577        O  0.64598751  0.17697720  0.68782114    -0.72400
O578        O  0.64356045  0.10011625  0.64644841    -0.78000
O579        O  0.59085376  0.16660606  0.72700201    -0.76200
O580        O  0.63544286  0.09051816  0.71746756    -1.12400
O581        O  0.57167822  0.10479740  0.77101257    -0.71600
C582        C  0.59990530  0.09629867  0.79595332     0.99200
C583        C  0.71215787  0.02829010  0.68383605     0.95600
Al584      Al  0.67449216  0.11932551  0.68785750     1.55600
O585        O  0.59962706  0.01142821  0.74745684    -0.76200
C586        C  0.61710783  0.19230189  0.71015978     0.99700
C587        C  0.72540128  0.11719751  0.75212554     0.94600
O588        O  0.71416757  0.07601194  0.75560397    -0.81500
O589        O  0.19615090  0.97289480  0.50466929    -0.81000
C590        C  0.10689655  0.91190619  0.88152518     0.98400
O591        O  0.14636442  0.89708606  0.88923481    -0.70100
O592        O  0.20714184  0.95420692  0.91426587    -0.73700
Al593      Al  0.18242606  0.90044933  0.93347517     1.49000
C594        C  0.20419509  0.99577099  0.92125384     0.93600
O595        O  0.08638308  0.00473307  0.97420169    -0.79900
O596        O  0.09102224  0.89985312  0.52193053    -0.73500
Al597      Al  0.13958350  0.98947378  0.48540221     1.90100
O598        O  0.04553030  0.94449285  0.97485029    -0.72500
O599        O  0.09879500  0.84258531  0.93621734    -0.72400
O600        O  0.07675307  0.92022806  0.90628942    -0.78000
O601        O  0.16858904  0.84170153  0.95160990    -0.76200
O602        O  0.13704758  0.92681926  0.95766427    -1.12400
O603        O  0.22288386  0.90114932  0.97338953    -0.71600
C604        C  0.22419404  0.94262816  0.49668516     0.99200
C605        C  0.04966502  0.98499366  0.98284416     0.95600
Al606      Al  0.08276214  0.89990865  0.95530445     1.55600
O607        O  0.17585935  0.01058705  0.94559749    -0.76200
C608        C  0.13113931  0.82206962  0.94991084     0.99700
C609        C  0.10202974  0.93238430  0.54363682     0.94600
O610        O  0.11500000  0.97032304  0.53168111    -0.81500
O611        O  0.29000720  0.96519386  0.76583640    -0.81000
C612        C  0.39216624  0.92008097  0.88535149     0.98400
O613        O  0.35279818  0.90409777  0.87822419    -0.70100
O614        O  0.28819559  0.95787591  0.85648324    -0.73700
Al615      Al  0.31468650  0.90594679  0.83513418     1.49000
C616        C  0.28839339  0.99952445  0.85036115     0.93600
O617        O  0.40470190  0.01644406  0.79478643    -0.79900
O618        O  0.40463119  0.89247442  0.76005075    -0.73500
Al619      Al  0.34686637  0.98467899  0.78462406     1.90100
O620        O  0.44764012  0.95788667  0.79216426    -0.72500
O621        O  0.40053999  0.85320848  0.82794402    -0.72400
O622        O  0.42090350  0.93013913  0.86008398    -0.78000
O623        O  0.33017561  0.84813838  0.81504466    -0.76200
O624        O  0.35771037  0.93517049  0.81035958    -1.12400
O625        O  0.27260481  0.90451353  0.79656655    -0.71600
C626        C  0.26520221  0.93131121  0.77081502     0.99200
C627        C  0.44285967  0.99866181  0.78684663     0.95600
Al628      Al  0.41315061  0.91113496  0.81027899     1.55600
O629        O  0.31501108  0.01627833  0.82580201    -0.76200
C630        C  0.36856837  0.83077589  0.81523019     0.99700
C631        C  0.39086584  0.91832538  0.73439654     0.94600
O632        O  0.37321699  0.95690952  0.74109894    -0.81500
O633        O  0.47342487  0.87633414  0.99021878    -0.81000
C634        C  0.39158848  0.91526812  0.62871759     0.98400
O635        O  0.38921596  0.94366719  0.60265055    -0.70100
O636        O  0.46187800  0.97118722  0.56833508    -0.73700
Al637      Al  0.41022456  0.94171385  0.55170377     1.49000
C638        C  0.49799977  0.96867476  0.55031379     0.93600
O639        O  0.50667344  0.85117176  0.58737995    -0.79900
O640        O  0.39457712  0.81145216  0.53243957    -0.73500
Al641      Al  0.48635798  0.87081942  0.53830833     1.90100
O642        O  0.44734542  0.80714929  0.59464997    -0.72500
O643        O  0.33873448  0.86621212  0.56573712    -0.72400
O644        O  0.39883106  0.87394193  0.62248450    -0.78000
O645        O  0.35519453  0.92440159  0.53265574    -0.73000
O646        O  0.43167298  0.88607054  0.55577381    -1.12400
O647        O  0.42731277  0.93466915  0.99915895    -0.71600
C648        C  0.44846201  0.90730682  0.97789834     0.99200
C649        C  0.48734691  0.81804022  0.60349296     0.95600
Al650      Al  0.39781213  0.84348921  0.57703721     1.55600
O651        O  0.51496304  0.93017667  0.54361422    -0.76200
C652        C  0.32712188  0.89621163  0.54366368     0.99700
C653        C  0.42879285  0.79589706  0.51570097     0.94600
O654        O  0.46852308  0.80989253  0.52349724    -0.81500
O655        O  0.47757770  0.65977500  0.78604466    -0.81000
C656        C  0.40235081  0.61654915  0.64736200     0.98400
O657        O  0.40095497  0.58975911  0.67479741    -0.70100
O658        O  0.47476155  0.57076661  0.71069097    -0.73700
Al659      Al  0.42082101  0.59670013  0.72627674     1.49000
C660        C  0.50960001  0.57625457  0.72961540     0.93600
O661        O  0.51157998  0.69143218  0.68626517    -0.79900
O662        O  0.39583287  0.72532028  0.73984152    -0.73500
Al663      Al  0.49201261  0.67338736  0.73640986     1.90100
O664        O  0.44950033  0.73059966  0.67795526    -0.72500
O665        O  0.34476409  0.66434515  0.70738618    -0.72400
O666        O  0.40732617  0.65856021  0.65199867    -0.78000
O667        O  0.36412634  0.61123066  0.74452502    -0.76200
O668        O  0.43867755  0.65307151  0.71965643    -1.12400
O669        O  0.43786485  0.59707754  0.77808584    -0.71600
C670        C  0.45712078  0.62605234  0.79908465     0.99200
C671        C  0.49017422  0.72231609  0.66923205     0.95600
Al672      Al  0.40248701  0.69136386  0.69631584     1.55600
O673        O  0.52491753  0.61594025  0.73407597    -0.76200
C674        C  0.33429101  0.63517730  0.73074282     0.99700
C675        C  0.42882128  0.74374714  0.75625781     0.94600
O676        O  0.46955326  0.73320199  0.74826645    -0.81500
O677        O  0.57665558  0.22083065  0.50736881    -0.81000
C678        C  0.60605653  0.11376810  0.89849476     0.98400
O679        O  0.59907218  0.15563654  0.90142954    -0.70100
O680        O  0.55517805  0.22764244  0.92469112    -0.73700
Al681      Al  0.60130072  0.18987877  0.94489212     1.49000
C682        C  0.51294372  0.22534511  0.91937252     0.93600
O683        O  0.47725477  0.11224133  0.98009826    -0.79900
O684        O  0.63042566  0.10704514  0.51117679    -0.73500
Al685      Al  0.54245885  0.16986734  0.49141368     1.90100
O686        O  0.52943532  0.06968871  0.95677120    -0.72500
O687        O  0.63800310  0.11100841  0.99563326    -0.72400
O688        O  0.60723999  0.08822281  0.92621662    -0.78000
O689        O  0.65866466  0.16418947  0.95850571    -0.76200
O690        O  0.56418292  0.15167738  0.96766494    -1.12400
O691        O  0.60531048  0.22572542  0.98786527    -0.71600
C692        C  0.59832271  0.24867376  0.48812804     0.99200
C693        C  0.49484905  0.07318601  0.97685479     0.95600
Al694      Al  0.58261542  0.09533376  0.97485780     1.55600
O695        O  0.49018350  0.19345580  0.93466456    -0.76200
C696        C  0.66830838  0.13554925  0.98245774     0.99700
C697        C  0.60534338  0.11989449  0.53769540     0.94600
O698        O  0.56813658  0.14027096  0.53270843    -0.81500
O699        O  0.54192518  0.31859510  0.76001616    -0.81000
C700        C  0.60171996  0.40423748  0.88350420     0.98400
O701        O  0.61555280  0.36524883  0.87299945    -0.70100
O702        O  0.55689097  0.30650388  0.84774162    -0.73700
Al703      Al  0.60917330  0.33223205  0.82681549     1.49000
C704        C  0.51459615  0.31051872  0.84547341     0.93600
O705        O  0.50271680  0.43154777  0.79810849    -0.79900
O706        O  0.62533216  0.42702745  0.76010159    -0.73500
Al707      Al  0.52908620  0.37367983  0.78319393     1.90100
O708        O  0.56413855  0.47084664  0.79557700    -0.72500
O709        O  0.66813050  0.41475175  0.82541821    -0.72400
O710        O  0.59232801  0.43555463  0.86083036    -0.78000
O711        O  0.66711792  0.34619326  0.80675872    -0.76200
O712        O  0.58135236  0.37882151  0.80715670    -1.12400
O713        O  0.60549592  0.29561125  0.78413173    -0.71600
C714        C  0.57508282  0.29256066  0.76005628     0.99200
C715        C  0.52288425  0.46791141  0.78963541     0.95600
Al716      Al  0.60930925  0.43199137  0.81063561     1.55600
O717        O  0.49740155  0.34048397  0.82419331    -0.76200
C718        C  0.68800825  0.38240001  0.81044639     0.99700
C719        C  0.59754050  0.41730178  0.73417408     0.94600
O720        O  0.55750931  0.40151361  0.74022285    -0.81500
O721        O  0.02390908  0.86662176  0.78220582    -0.81000
C722        C  0.09471453  0.88208434  0.63962248     0.98400
O723        O  0.09030571  0.91560510  0.66178386    -0.70100
O724        O  0.02292303  0.94552589  0.70235339    -0.73700
Al725      Al  0.07781290  0.91901586  0.71434345     1.49000
C726        C  0.99018595  0.94377682  0.72423723     0.93600
O727        O  0.98274206  0.82698078  0.68688846    -0.79900
O728        O  0.09364801  0.78937467  0.74306079    -0.73500
Al729      Al  0.00458167  0.84769940  0.73515331     1.90100
O730        O  0.04202037  0.78241444  0.67872962    -0.72500
O731        O  0.15098017  0.83978730  0.71131109    -0.72400
O732        O  0.09610811  0.84217810  0.65070405    -0.78000
O733        O  0.13714995  0.90880166  0.72707490    -0.76200
O734        O  0.05864100  0.86216971  0.71543291    -1.12400
O735        O  0.06718996  0.92575676  0.76692960    -0.71600
C736        C  0.04772976  0.90075588  0.79087136     0.99200
C737        C  0.00236805  0.79447032  0.66965094     0.95600
Al738      Al  0.09283567  0.81740452  0.69744816     1.55600
O739        O  0.97454183  0.90559554  0.73226564    -0.76200
C740        C  0.16388742  0.87671233  0.72453566     0.99700
C741        C  0.05901648  0.77241829  0.75751142     0.94600
O742        O  0.02000263  0.78669394  0.74930323    -0.81500
O743        O  0.05637367  0.62626480  0.99305721    -0.81000
C744        C  0.09664630  0.61077750  0.63786814     0.98400
O745        O  0.08862796  0.58092283  0.61286593    -0.70100
O746        O  0.06150812  0.55071817  0.54410280    -0.73700
Al747      Al  0.10757011  0.58827165  0.56313637     1.49000
C748        C  0.01985539  0.55498807  0.54040585     0.93600
O749        O  0.99642971  0.67689927  0.57939663    -0.79900
O750        O  0.10623783  0.72723251  0.54729130    -0.73500
Al751      Al  0.02956193  0.64881103  0.53766866     1.90100
O752        O  0.05337411  0.71061716  0.60765874    -0.72500
O753        O  0.16556474  0.67500484  0.56809460    -0.72400
O754        O  0.11058427  0.65058320  0.63049049    -0.78000
O755        O  0.16552931  0.60483793  0.58080935    -0.76200
O756        O  0.08043070  0.64194017  0.56275173    -1.12400
O757        O  0.12327769  0.59872293  0.01246403    -0.71600
C758        C  0.09564304  0.60913225  0.98677812     0.99200
C759        C  0.01151316  0.70381603  0.60427448     0.95600
Al760      Al  0.10692432  0.68721529  0.58689867     1.55600
O761        O  0.00181303  0.59172184  0.55025091    -0.76200
C762        C  0.18590311  0.63847987  0.56887858     0.99700
C763        C  0.07877225  0.73147471  0.52127554     0.94600
O764        O  0.04527749  0.70553602  0.51779283    -0.81500
O765        O  0.96093542  0.20966121  0.77187626    -0.81000
C766        C  0.91031031  0.11081970  0.88770700     0.98400
O767        O  0.89457117  0.15000495  0.88039365    -0.70100
O768        O  0.94890020  0.21289704  0.85462361    -0.73700
Al769      Al  0.89521659  0.18581756  0.83573332     1.49000
C770        C  0.99094605  0.20496644  0.85323770     0.93600
O771        O  0.00190318  0.09056969  0.79270963    -0.79900
O772        O  0.87703563  0.09726129  0.76475608    -0.73500
Al773      Al  0.97392200  0.15011572  0.78707617     1.90100
O774        O  0.94081696  0.05103915  0.79254358    -0.72500
O775        O  0.84025529  0.10103010  0.83544543    -0.72400
O776        O  0.91897486  0.08099475  0.86267076    -0.78000
O777        O  0.83591584  0.16927508  0.81820022    -0.76200
O778        O  0.92339739  0.14152935  0.81250995    -1.12400
O779        O  0.89386118  0.22451182  0.79486139    -0.71600
C780        C  0.92587733  0.23349388  0.77311403     0.99200
C781        C  0.98132263  0.05447305  0.78395178     0.95600
Al782      Al  0.89737978  0.08771145  0.81396127     1.55600
O783        O  0.00683989  0.17491864  0.83071292    -0.76200
C784        C  0.81730274  0.13181869  0.82266787     0.99700
C785        C  0.90207705  0.11199202  0.73824633     0.94600
O786        O  0.94197951  0.12888650  0.74324924    -0.81500
O787        O  0.95733692  0.30024102  0.50425506    -0.81000
C788        C  0.91138029  0.39623144  0.88605549     0.98400
O789        O  0.89539325  0.35739851  0.89437087    -0.70100
O790        O  0.95208838  0.29449081  0.91443553    -0.73700
Al791      Al  0.90103972  0.32092489  0.93800509     1.49000
C792        C  0.99433538  0.30126916  0.91329576     0.93600
O793        O  0.01319428  0.41432957  0.97286953    -0.79900
O794        O  0.88173225  0.41461175  0.51048212    -0.73500
Al795      Al  0.97374571  0.35634899  0.48410033     1.90100
O796        O  0.95382136  0.45559688  0.97866093    -0.72500
O797        O  0.84697549  0.40561308  0.94573572    -0.72400
O798        O  0.92282352  0.42579007  0.91047367    -0.78000
O799        O  0.84408144  0.33630105  0.96045934    -0.76200
O800        O  0.93202856  0.36470245  0.95978359    -1.12400
O801        O  0.90365407  0.28170758  0.97772270    -0.71600
C802        C  0.92123720  0.27782574  0.50409035     0.99200
C803        C  0.99513034  0.45100062  0.98343483     0.95600
Al804      Al  0.90692982  0.41891662  0.96086715     1.55600
O805        O  0.01299879  0.33006892  0.93536550    -0.76200
C806        C  0.82549532  0.37387154  0.95968122     0.99700
C807        C  0.90846600  0.40134512  0.53589960     0.94600
O808        O  0.94726869  0.38323328  0.52887761    -0.81500
O809        O  0.87494965  0.47817114  0.78410237    -0.81000
C810        C  0.90465521  0.40544899  0.64181421     0.98400
O811        O  0.93319617  0.40447638  0.66800681    -0.70100
O812        O  0.95743406  0.47487020  0.70680689    -0.73700
Al813      Al  0.92983684  0.42098196  0.71972290     1.49000
C814        C  0.95427123  0.50750550  0.72874933     0.93600
O815        O  0.83371224  0.51982778  0.69005869    -0.79900
O816        O  0.79723348  0.40405347  0.73735163    -0.73500
Al817      Al  0.85712016  0.49562683  0.73666193     1.90100
O818        O  0.79524035  0.45835610  0.67679895    -0.72500
O819        O  0.85294234  0.35004381  0.70368168    -0.72400
O820        O  0.86265625  0.41093185  0.64787684    -0.78000
O821        O  0.91408208  0.36381615  0.73470315    -0.76200
O822        O  0.87325717  0.44204052  0.71626816    -1.12400
O823        O  0.93308260  0.43344471  0.77172838    -0.71600
C824        C  0.90741501  0.45408849  0.79445514     0.99200
C825        C  0.80017648  0.50040442  0.67415611     0.95600
Al826      Al  0.83097616  0.40893089  0.69322483     1.55600
O827        O  0.91585257  0.52618246  0.73194936    -0.76200
C828        C  0.88404375  0.33707321  0.72435357     0.99700
C829        C  0.78252649  0.43692850  0.75623561     0.94600
O830        O  0.79722481  0.47643326  0.75099412    -0.81500
O831        O  0.64584144  0.48096154  0.98699559    -0.81000
C832        C  0.60486914  0.42169062  0.62910635     0.98400
O833        O  0.57864765  0.41766506  0.60138702    -0.70100
O834        O  0.55979266  0.48870148  0.56308269    -0.73700
Al835      Al  0.58594783  0.43418943  0.54993687     1.49000
C836        C  0.56636128  0.52306119  0.54414332     0.93600
O837        O  0.68599187  0.52863399  0.58378980    -0.79900
O838        O  0.71528064  0.40784542  0.53859476    -0.73500
Al839      Al  0.66359022  0.50406255  0.53641749     1.90100
O840        O  0.72041114  0.46576109  0.59769812    -0.72500
O841        O  0.65257442  0.36067784  0.57451964    -0.72400
O842        O  0.64713128  0.42804702  0.62525253    -0.78000
O843        O  0.60206616  0.37717624  0.53378255    -0.76200
O844        O  0.64268958  0.45295091  0.55634829    -1.12400
O845        O  0.58366633  0.44201096  0.99932057    -0.71600
C846        C  0.61107487  0.45979681  0.97663963     0.99200
C847        C  0.71746414  0.50792454  0.60077706     0.95600
Al848      Al  0.68059281  0.41871321  0.58189298     1.55600
O849        O  0.60656961  0.53737101  0.53918381    -0.76200
C850        C  0.62571905  0.34867036  0.54955437     0.99700
C851        C  0.73289060  0.43889362  0.51947606     0.94600
O852        O  0.72234262  0.47983101  0.52474235    -0.81500
O853        O  0.21936007  0.54068784  0.78209973    -0.81000
C854        C  0.09911762  0.60448183  0.88195073     0.98400
O855        O  0.14155979  0.60434510  0.87678698    -0.70100
O856        O  0.21320607  0.56075971  0.85286264    -0.73700
Al857      Al  0.17537186  0.60761785  0.83316990     1.49000
C858        C  0.20570825  0.51967372  0.85957920     0.93600
O859        O  0.10133283  0.48401107  0.78940610    -0.79900
O860        O  0.08120651  0.57356020  0.75171779    -0.73500
Al861      Al  0.15852523  0.51872596  0.79102162     1.90100
O862        O  0.05631518  0.53023369  0.81634456    -0.72500
O863        O  0.08856172  0.64478244  0.79052257    -0.72400
O864        O  0.07124083  0.60182611  0.85538765    -0.78000
O865        O  0.14878363  0.66395086  0.82103851    -0.76200
O866        O  0.13701279  0.57106607  0.80940201    -1.12400
O867        O  0.21180585  0.61373169  0.79046220    -0.71600
C868        C  0.23264080  0.58066440  0.77641831     0.99200
C869        C  0.06154982  0.49919814  0.79331424     0.95600
Al870      Al  0.07902873  0.58626192  0.80405284     1.55600
O871        O  0.17577322  0.49789214  0.84077752    -0.76200
C872        C  0.11498300  0.67427427  0.80219012     0.99700
C873        C  0.11095671  0.55625344  0.73023292     0.94600
O874        O  0.14535307  0.53580925  0.74220740    -0.81500
O875        O  0.30261362  0.55445052  0.50853244    -0.81000
C876        C  0.40613278  0.60501193  0.89471012     0.98400
O877        O  0.36427116  0.60339017  0.90204140    -0.70100
O878        O  0.29468768  0.56169393  0.93144219    -0.73700
Al879      Al  0.33378079  0.61068494  0.94704852     1.49000
C880        C  0.30340033  0.52081338  0.92448231     0.93600
O881        O  0.41424234  0.49301659  0.98942465    -0.79900
O882        O  0.41351569  0.63808627  0.51535695    -0.73500
Al883      Al  0.36124232  0.54299697  0.48888824     1.90100
O884        O  0.45711225  0.54011444  0.96128279    -0.72500
O885        O  0.42006678  0.65406232  0.98691911    -0.72400
O886        O  0.43601795  0.60809630  0.92013882    -0.78000
O887        O  0.35988080  0.66914980  0.95556429    -0.76200
O888        O  0.37463045  0.57729546  0.97032577    -1.12400
O889        O  0.30111390  0.61958763  0.99123296    -0.71600
C890        C  0.27919417  0.58957522  0.51032425     0.99200
C891        C  0.45354965  0.50935300  0.98421061     0.95600
Al892      Al  0.43210277  0.59551188  0.97326955     1.55600
O893        O  0.33568943  0.50149231  0.94181214    -0.76200
C894        C  0.39229341  0.68184229  0.97544872     0.99700
C895        C  0.40111247  0.61079281  0.54088511     0.94600
O896        O  0.38486021  0.57134665  0.53383663    -0.81500
C897        C  0.23062044  0.50099995  0.89219276    -0.15600
C898        C  0.27697033  0.49932552  0.89331886    -0.30800
H899        H  0.21278437  0.50504601  0.91842150     0.13400
H900        H  0.29525747  0.49627800  0.86721551     0.14000
C901        C  0.52767321  0.54265833  0.52354711    -0.15600
C902        C  0.49509951  0.51654927  0.50659774    -0.30800
H903        H  0.52823809  0.57884034  0.51938802     0.13400
H904        H  0.49097667  0.46654822  0.02379536     0.14000
C905        C  0.99175739  0.51807784  0.75578622    -0.15600
C906        C  0.02471457  0.48799710  0.76570073    -0.30800
H907        H  0.98952229  0.55011296  0.77044923     0.13400
H908        H  0.02706185  0.45595874  0.75102089     0.14000
C909        C  0.76078805  0.52499475  0.65775445    -0.15600
C910        C  0.75578026  0.53066260  0.62088291    -0.30800
H911        H  0.72945524  0.51961682  0.67315034     0.13400
H912        H  0.78678478  0.53330256  0.60461025     0.14000
C913        C  0.78241785  0.38213769  0.97930810    -0.15600
C914        C  0.76722988  0.42835208  0.49146837    -0.30800
H915        H  0.76383285  0.35352180  0.99034283     0.13400
H916        H  0.78821581  0.45611851  0.48180953     0.14000
C917        C  0.89355028  0.40746774  0.57453468    -0.15600
C918        C  0.92089790  0.39983000  0.60340217    -0.30800
H919        H  0.85898214  0.41887664  0.57927891     0.13400
H920        H  0.95591783  0.38981767  0.59880363     0.14000
C921        C  0.91570474  0.40609855  0.84676692    -0.15600
C922        C  0.91346404  0.44794801  0.83402125    -0.30800
H923        H  0.91585789  0.37769103  0.82740502     0.13400
H924        H  0.90827583  0.47634432  0.85284217     0.14000
C925        C  0.01883991  0.23016581  0.88146013    -0.15600
C926        C  0.01896092  0.27623131  0.88288250    -0.30800
H927        H  0.02027032  0.21314880  0.90787428     0.13400
H928        H  0.01700805  0.29311902  0.85643938     0.14000
C929        C  0.92407661  0.27383125  0.75048483    -0.15600
C930        C  0.88489904  0.29096419  0.73837637    -0.30800
H931        H  0.95596219  0.29108922  0.74497769     0.13400
H932        H  0.85321448  0.27253741  0.74149230     0.14000
C933        C  0.24399779  0.59344745  0.53865670    -0.15600
C934        C  0.22993376  0.63394664  0.55063061    -0.30800
H935        H  0.22769149  0.56270112  0.54813428     0.13400
H936        H  0.24678978  0.66441934  0.54113797     0.14000
C937        C  0.01458754  0.48565711  0.50014319    -0.15600
C938        C  0.99397671  0.51824235  0.52144792    -0.30800
H939        H  0.05689707  0.48785559  0.00302250     0.13400
H940        H  0.95715503  0.51950595  0.52315580     0.14000
C941        C  0.11008784  0.60170721  0.94852891    -0.15600
C942        C  0.08207987  0.60817620  0.91993675    -0.30800
H943        H  0.14512155  0.59165572  0.94377590     0.13400
H944        H  0.04659094  0.61655581  0.92445949     0.14000
C945        C  0.10650902  0.56127377  0.69026700    -0.15600
C946        C  0.09101728  0.59987258  0.67683287    -0.30800
H947        H  0.12212831  0.53642786  0.67190184     0.13400
H948        H  0.08036858  0.62676238  0.69565402     0.14000
C949        C  0.97343677  0.98503864  0.74425759    -0.15600
C950        C  0.00115856  0.01667946  0.76090310    -0.30800
H951        H  0.93715284  0.98627591  0.74951144     0.13400
H952        H  0.03761749  0.01525760  0.75676551     0.14000
C953        C  0.98228256  0.72628104  0.63274736    -0.15600
C954        C  0.98262256  0.77188996  0.63622751    -0.30800
H955        H  0.97900478  0.70723988  0.65812506     0.13400
H956        H  0.98624193  0.79126337  0.61105734     0.14000
C957        C  0.06474765  0.73304734  0.78075361    -0.15600
C958        C  0.10637920  0.72084781  0.79205597    -0.30800
H959        H  0.03570952  0.71088643  0.78456185     0.13400
H960        H  0.13512054  0.74371988  0.78999764     0.14000
C961        C  0.73235975  0.38851866  0.79280541    -0.15600
C962        C  0.74627624  0.42993795  0.78340166    -0.30800
H963        H  0.74974237  0.35886410  0.78197814     0.13400
H964        H  0.72841735  0.45958055  0.79372120     0.14000
C965        C  0.58621606  0.41761703  0.66668117    -0.15600
C966        C  0.61286518  0.42476551  0.69618276    -0.30800
H967        H  0.55094731  0.40761221  0.67014059     0.13400
H968        H  0.64788681  0.43556926  0.69246339     0.14000
C969        C  0.59812365  0.41290972  0.92317720    -0.15600
C970        C  0.60388999  0.45426743  0.93713424    -0.30800
H971        H  0.59597445  0.38416190  0.94155253     0.13400
H972        H  0.61115976  0.48248319  0.91909068     0.14000
C973        C  0.48791397  0.27388202  0.86496724    -0.15600
C974        C  0.49246802  0.26694134  0.90205188    -0.30800
H975        H  0.48155103  0.24427742  0.84781302     0.13400
H976        H  0.50057287  0.29716444  0.91799476     0.14000
C977        C  0.60961511  0.29309712  0.50268183    -0.15600
C978        C  0.62106493  0.30150235  0.53789458    -0.30800
H979        H  0.60870969  0.32044582  0.48298202     0.13400
H980        H  0.62608430  0.27448757  0.55742472     0.14000
C981        C  0.27492511  0.58797733  0.75607223    -0.15600
C982        C  0.28727464  0.62837440  0.74288891    -0.30800
H983        H  0.29790210  0.55952187  0.75364004     0.13400
H984        H  0.26383302  0.65650949  0.74295404     0.14000
C985        C  0.50196210  0.50555721  0.76810541    -0.15600
C986        C  0.52848650  0.53754819  0.75085412    -0.30800
H987        H  0.46543097  0.50576465  0.76458231     0.13400
H988        H  0.56488265  0.53777154  0.75527571     0.14000
C989        C  0.45418819  0.62199659  0.83976779    -0.15600
C990        C  0.41805248  0.60212681  0.85511994    -0.30800
H991        H  0.47803194  0.64058430  0.85702742     0.13400
H992        H  0.39249751  0.58719641  0.83708036     0.14000
C993        C  0.40595856  0.62579843  0.57973645    -0.15600
C994        C  0.39788476  0.59896924  0.60902883    -0.30800
H995        H  0.41673918  0.66046360  0.58427947     0.13400
H996        H  0.38836306  0.56391277  0.60481561     0.14000
C997        C  0.49290641  0.04300406  0.51567938    -0.15600
C998        C  0.51769061  0.00978411  0.53280289    -0.30800
H999        H  0.45618369  0.04377135  0.51814131     0.13400
H1000       H  0.55433619  0.00925039  0.52945559     0.14000
C1001       C  0.50758446  0.79342106  0.63546275    -0.15600
C1002       C  0.50870363  0.74749924  0.63663950    -0.30800
H1003       H  0.50759198  0.81196133  0.66157344     0.13400
H1004       H  0.50817087  0.72897298  0.61053722     0.14000
C1005       C  0.42219365  0.75930357  0.48862538    -0.15600
C1006       C  0.39730167  0.72899092  0.98739031    -0.30800
H1007       H  0.45196211  0.74065651  0.47948116     0.13400
H1008       H  0.36768393  0.75063745  0.98723874     0.14000
C1009       C  0.37757603  0.78820941  0.79584466    -0.15600
C1010       C  0.41990870  0.77908181  0.78376733    -0.30800
H1011       H  0.34884494  0.76802266  0.78658100     0.13400
H1012       H  0.44852697  0.79974542  0.79256936     0.14000
C1013       C  0.38604975  0.93061248  0.66726924    -0.15600
C1014       C  0.39586963  0.90342387  0.69571087    -0.30800
H1015       H  0.37489424  0.96495533  0.67232205     0.13400
H1016       H  0.40833196  0.86953441  0.69055054     0.14000
C1017       C  0.40371215  0.92589812  0.92426845    -0.15600
C1018       C  0.44270523  0.91056542  0.93778903    -0.30800
H1019       H  0.37672631  0.93667997  0.94304370     0.13400
H1020       H  0.46775178  0.89515090  0.91942695     0.14000
C1021       C  0.22581896  0.92400531  0.74708681    -0.15600
C1022       C  0.20966408  0.88247923  0.73962851    -0.30800
H1023       H  0.20848029  0.95358696  0.73694428     0.13400
H1024       H  0.22843149  0.85280780  0.74776887     0.14000
C1025       C  0.12370528  0.77964221  0.96955675    -0.15600
C1026       C  0.08491163  0.76783525  0.49483031    -0.30800
H1027       H  0.15332111  0.76335886  0.98104722     0.13400
H1028       H  0.05467264  0.77959975  0.48091882     0.14000
C1029       C  0.24129653  0.02446841  0.90494640    -0.15600
C1030       C  0.25001346  0.02553293  0.86794516    -0.30800
H1031       H  0.27096481  0.02557892  0.92262319     0.13400
H1032       H  0.22039040  0.02614364  0.85023110     0.14000
C1033       C  0.26518052  0.93897967  0.51855837    -0.15600
C1034       C  0.28094007  0.89892265  0.52939594    -0.30800
H1035       H  0.28139703  0.95721461  0.03367829     0.13400
H1036       H  0.26113975  0.86831245  0.52549678     0.14000
C1037       C  0.09928726  0.92785226  0.58385395    -0.15600
C1038       C  0.09731234  0.88767362  0.59950814    -0.30800
H1039       H  0.10058823  0.95820983  0.60093319     0.13400
H1040       H  0.09767345  0.85739601  0.58226343     0.14000
C1041       C  0.09627016  0.91722588  0.84249843    -0.15600
C1042       C  0.05440886  0.90978630  0.83010796    -0.30800
H1043       H  0.12441493  0.92028596  0.82299799     0.13400
H1044       H  0.02709623  0.90155389  0.84930291     0.14000
C1045       C  0.61518653  0.24002014  0.71954381    -0.15600
C1046       C  0.57611186  0.25611097  0.73306967    -0.30800
H1047       H  0.64670599  0.25880437  0.72242083     0.13400
H1048       H  0.54439906  0.23822232  0.72816331     0.14000
C1049       C  0.48210036  0.02221065  0.76821709    -0.15600
C1050       C  0.51934788  0.99847900  0.75545695    -0.30800
H1051       H  0.47984957  0.05812903  0.76338743     0.13400
H1052       H  0.52234851  0.96296122  0.76170894     0.14000
C1053       C  0.59004331  0.11104219  0.83348408    -0.15600
C1054       C  0.61279821  0.09437340  0.86198096    -0.30800
H1055       H  0.56450804  0.13698765  0.83777467     0.13400
H1056       H  0.63591090  0.06618317  0.85848969     0.14000
C1057       C  0.58752450  0.10894162  0.60226903    -0.15600
C1058       C  0.61849501  0.10935389  0.57498138    -0.30800
H1059       H  0.55175401  0.11482271  0.59677476     0.13400
H1060       H  0.65416866  0.10243366  0.58006402     0.14000
C1061       C  0.76089784  0.13768598  0.77495532    -0.15600
C1062       C  0.77291776  0.12047377  0.80735023    -0.30800
H1063       H  0.77933814  0.16630828  0.76371395     0.13400
H1064       H  0.75515185  0.09115134  0.81803771     0.14000
C1065       C  0.87401671  0.22836503  0.54144533    -0.15600
C1066       C  0.91538137  0.24184512  0.53041932    -0.30800
H1067       H  0.84398402  0.24849318  0.53654712     0.13400
H1068       H  0.94538973  0.22268192  0.53759327     0.14000
C1069       C  0.00624168  0.01988728  0.50699708    -0.15600
C1070       C  0.97543268  0.99372058  0.52630012    -0.30800
H1071       H  0.01356337  0.04159612  0.01153629     0.13400
H1072       H  0.97667841  0.95727383  0.52381940     0.14000
C1073       C  0.75207378  0.99556432  0.62956263    -0.15600
C1074       C  0.74978235  0.00148224  0.66670686    -0.30800
H1075       H  0.71973666  0.99177332  0.61553313     0.13400
H1076       H  0.78202373  0.00704838  0.68049098     0.14000
C1077       C  0.73324516  0.09355238  0.49348295    -0.15600
C1078       C  0.71506128  0.12972486  0.99540847    -0.30800
H1079       H  0.71416618  0.06436088  0.48387872     0.13400
H1080       H  0.73797683  0.15842653  0.99615942     0.14000
C1081       C  0.90243581  0.06058310  0.93982169    -0.15600
C1082       C  0.91637061  0.10006746  0.92658664    -0.30800
H1083       H  0.88812659  0.03513615  0.92134323     0.13400
H1084       H  0.92529216  0.12741990  0.94555369     0.14000
C1085       C  0.90957606  0.11834692  0.67059109    -0.15600
C1086       C  0.88413475  0.10882093  0.70054327    -0.30800
H1087       H  0.94485735  0.12839853  0.67355280     0.13400
H1088       H  0.84923086  0.09751998  0.69738158     0.14000
loop_ 
_geom_bond_atom_site_label_1 
_geom_bond_atom_site_label_2 
_geom_bond_distance 
_geom_bond_site_symmetry_2 
_ccdc_geom_bond_type 
O1           C16   1.257       .  A
O1         Al553   1.872       .  S
C2           O12   1.260       .  A
C2            O3   1.269       .  A
C2          C541   1.469       .  S
O3           Al5   1.929       .  S
O4            C6   1.246   1_545  A
O4           Al5   1.853       .  S
Al5          O13   1.841       .  S
Al5         O559   1.920       .  S
Al5          O14   1.789       .  S
C6           O19   1.265       .  A
C6          C526   1.495       .  S
O7           C17   1.278   1_565  A
O7           Al9   1.955   1_565  S
O8           C21   1.258       .  A
O8          Al18   1.890       .  S
Al9          O22   1.930       .  S
Al9          O19   1.955   1_545  S
Al9         O545   1.877   1_554  S
Al9          O14   1.800       .  S
O10          C17   1.265       .  A
O10         Al18   1.918       .  S
O11          C20   1.252       .  A
O11         Al18   1.904       .  S
O12         Al18   1.860       .  S
O13          C20   1.244       .  A
O14         Al18   1.784       .  S
O15          C16   1.267       .  A
O15        Al549   1.918       .  S
C16         C537   1.457       .  S
C17         C529   1.496   1_545  S
C20         C521   1.459       .  S
C21          O22   1.265       .  A
C21         C533   1.465       .  S
O23          C38   1.259       .  A
O23         Al31   1.864       .  S
C24          O34   1.257       .  A
C24          O25   1.263       .  A
C24         C513   1.436       .  S
O25         Al27   1.887       .  S
O26          C28   1.254       .  A
O26         Al27   1.861       .  S
Al27         O35   1.827       .  S
Al27         O37   1.864       .  S
Al27         O36   1.792       .  S
C28          O41   1.270       .  A
C28         C506   1.493   1_545  S
O29          C39   1.275       .  A
O29         Al31   1.962       .  S
O30          C43   1.255       .  A
O30         Al40   1.869       .  S
Al31         O44   1.929       .  S
Al31         O41   1.953       .  S
Al31         O36   1.783       .  S
O32          C39   1.258       .  A
O32         Al40   1.901       .  S
O33          C42   1.254       .  A
O33         Al40   1.918       .  S
O34         Al40   1.857       .  S
O35          C42   1.244       .  A
O36         Al40   1.793       .  S
O37          C38   1.251       .  A
C38         C509   1.430       .  S
C39         C530   1.495       .  S
C42         C501   1.464       .  S
C43          O44   1.271       .  A
C43         C517   1.462       .  S
O45          C60   1.249   1_554  A
O45         Al53   1.871   1_554  S
C46          O56   1.269       .  A
C46          O47   1.279       .  A
C46         C497   1.463       .  S
O47         Al49   1.934       .  S
O48          C50   1.263       .  A
O48         Al49   1.910       .  S
Al49         O57   1.926       .  S
Al49         O59   1.874       .  S
Al49         O58   1.778       .  S
C50          O63   1.281   1_565  A
C50         C485   1.517   1_565  S
O51          C61   1.279   1_545  A
O51        Al597   1.978   1_545  S
O52          C65   1.277       .  A
O52        Al606   1.898   1_554  S
Al53         O66   1.929   1_556  S
Al53        O595   1.950   1_565  S
Al53        O607   1.981   1_565  S
Al53        O602   1.776       .  S
O54          C61   1.237       .  A
O54         Al62   1.815       .  S
O55          C64   1.240       .  A
O55         Al62   1.870       .  S
O56         Al62   1.883       .  S
O57          C64   1.249       .  A
O58         Al62   1.788       .  S
O58        Al597   1.793       .  S
O59         C604   1.254       .  A
C60         O603   1.253       .  A
C60         C489   1.450   1_556  S
C61        C1069   1.503   1_565  S
Al62        O596   1.912       .  S
O63        Al597   1.978   1_545  S
C64         C481   1.468       .  S
C65          O66   1.282       .  A
C65         C493   1.462       .  S
O67          C82   1.250       .  A
O67         Al75   1.868       .  S
C68          O78   1.279       .  A
C68          O69   1.282       .  A
C68         C473   1.458       .  S
O69         Al71   1.935       .  S
O70          C72   1.255       .  A
O70         Al71   1.874       .  S
Al71         O79   1.903       .  S
Al71         O81   1.875       .  S
Al71         O80   1.768       .  S
C72          O85   1.288   1_565  A
C72         C486   1.512   1_565  S
O73          C83   1.272       .  A
O73         Al75   1.967   1_545  S
O74          C87   1.281       .  A
O74         Al84   1.908       .  S
Al75         O88   1.942       .  S
Al75         O85   2.001   1_565  S
Al75         O80   1.780       .  S
O76          C83   1.236   1_565  A
O76         Al84   1.835       .  S
O77          C86   1.240       .  A
O77         Al84   1.883       .  S
O78         Al84   1.887       .  S
O79          C86   1.243       .  A
O80         Al84   1.778       .  S
O81          C82   1.255       .  A
C82         C477   1.447       .  S
C83         C505   1.503       .  S
C86         C465   1.461       .  S
C87          O88   1.283       .  A
C87         C470   1.471       .  S
O89         C104   1.260       .  A
O89        Al641   1.877       .  S
C90         O100   1.264       .  A
C90          O91   1.272       .  A
C90         C469   1.473       .  S
O91         Al93   1.930       .  S
O92          C94   1.246       .  A
O92         Al93   1.858       .  S
Al93        O101   1.833       .  S
Al93        O647   1.919   1_554  S
Al93        O102   1.785       .  S
C94         O107   1.267       .  A
C94         C454   1.519   1_565  S
O95         C105   1.287       .  A
O95         Al97   1.987       .  S
O96         C109   1.256       .  A
O96        Al106   1.877       .  S
Al97        O110   1.939       .  S
Al97        O107   1.974       .  S
Al97        O633   1.892   1_554  S
Al97        O102   1.794       .  S
O98         C105   1.262       .  A
O98        Al106   1.919       .  S
O99         C108   1.246       .  A
O99        Al106   1.892       .  S
O100       Al106   1.877       .  S
O101        C108   1.242       .  A
O102       Al106   1.789       .  S
O103        C104   1.268       .  A
O103       Al637   1.915       .  S
C104        C474   1.456       .  S
C105        C457   1.506       .  S
C108        C490   1.457       .  S
C109        O110   1.266       .  A
C109        C461   1.463       .  S
O111        C126   1.266       .  A
O111       Al119   1.884       .  S
C112        O122   1.262       .  A
C112        O113   1.277       .  A
C112        C450   1.471       .  S
O113       Al115   1.942       .  S
O114        C116   1.244       .  A
O114       Al115   1.850       .  S
Al115       O123   1.828       .  S
Al115       O125   1.930       .  S
Al115       O124   1.785       .  S
C116        O129   1.263       .  A
C116        C442   1.504       .  S
O117        C127   1.284       .  A
O117       Al119   1.980       .  S
O118        C131   1.257       .  A
O118       Al128   1.872       .  S
Al119       O132   1.932       .  S
Al119       O129   1.952       .  S
Al119       O124   1.792       .  S
O120        C127   1.265       .  A
O120       Al128   1.937       .  S
O121        C130   1.249       .  A
O121       Al128   1.908       .  S
O122       Al128   1.871       .  S
O123        C130   1.238       .  A
O124       Al128   1.790       .  S
O125        C126   1.274       .  A
C126        C445   1.461       .  S
C127        C458   1.509       .  S
C130        C438   1.465       .  S
C131        O132   1.266       .  A
C131        C466   1.461       .  S
O133        C148   1.268   1_556  A
O133       Al141   1.923       .  S
C134        O144   1.259       .  A
C134        O135   1.272       .  A
C134        C510   1.433       .  S
O135       Al137   1.902       .  S
O136        C138   1.265       .  A
O136       Al137   1.914       .  S
Al137       O145   1.940       .  S
Al137       O147   1.874       .  S
Al137       O146   1.783       .  S
C138        O151   1.286       .  A
C138        C430   1.522       .  S
O139        C149   1.285       .  A
O139       Al685   1.985       .  S
O140        C153   1.260       .  A
O140       Al694   1.873   1_554  S
Al141       O154   1.878   1_556  S
Al141       O683   1.995       .  S
Al141       O695   1.995       .  S
Al141       O690   1.802       .  S
O142        C149   1.245       .  A
O142       Al150   1.840       .  S
O143        C152   1.249       .  A
O143       Al150   1.890       .  S
O144       Al150   1.858       .  S
O145        C152   1.259       .  A
O146       Al150   1.792       .  S
O146       Al685   1.772       .  S
O147        C692   1.251       .  A
C148        O691   1.262   1_554  A
C148        C433   1.452       .  S
C149        C997   1.508       .  S
Al150       O684   1.877       .  S
O151       Al685   2.005       .  S
C152        C534   1.476       .  S
C153        O154   1.257       .  A
C153        C514   1.446       .  S
O155        C170   1.247       .  A
O155       Al163   1.861       .  S
C156        O166   1.277       .  A
C156        O157   1.284       .  A
C156        C425   1.463       .  S
O157       Al159   1.950       .  S
O158        C160   1.254       .  A
O158       Al159   1.867       .  S
Al159       O167   1.894       .  S
Al159       O169   1.897       .  S
Al159       O168   1.775       .  S
C160        O173   1.291       .  A
C160        C429   1.514       .  S
O161        C171   1.272       .  A
O161       Al163   1.962       .  S
O162        C175   1.276       .  A
O162       Al172   1.885       .  S
Al163       O176   1.954       .  S
Al163       O173   2.014       .  S
Al163       O168   1.775       .  S
O164        C171   1.240       .  A
O164       Al172   1.860       .  S
O165        C174   1.244       .  A
O165       Al172   1.889       .  S
O166       Al172   1.878       .  S
O167        C174   1.242       .  A
O168       Al172   1.784       .  S
O169        C170   1.257       .  A
C170        C502   1.451       .  S
C171        C441   1.510       .  S
C174        C417   1.457       .  S
C175        O176   1.286       .  A
C175        C422   1.464       .  S
O177        C192   1.273       .  A
O177       Al185   1.908       .  S
C178        O188   1.265       .  A
C178        O179   1.264       .  A
C178        C494   1.458       .  S
O179       Al181   1.890       .  S
O180        C182   1.245       .  A
O180       Al181   1.863       .  S
Al181       O189   1.825       .  S
Al181       O191   1.896       .  S
Al181       O190   1.787       .  S
C182        O195   1.255   1_455  A
C182        C405   1.484   1_455  S
O183        C193   1.282   1_655  A
O183       Al185   1.963   1_655  S
O184        C197   1.252       .  A
O184       Al194   1.878       .  S
Al185       O198   1.914       .  S
Al185       O195   1.921   1_455  S
Al185       O190   1.792       .  S
O186        C193   1.266       .  A
O186       Al194   1.917       .  S
O187        C196   1.245       .  A
O187       Al194   1.887       .  S
O188       Al194   1.884       .  S
O189        C196   1.241       .  A
O190       Al194   1.792       .  S
O191        C192   1.267       .  A
C192        C498   1.457       .  S
C193        C410   1.493   1_455  S
C196        C478   1.456       .  S
C197        O198   1.257       .  A
C197        C413   1.458       .  S
O199        C214   1.285       .  A
O199       Al751   1.944       .  S
C200        O210   1.277       .  A
C200        O201   1.286       .  A
C200        C402   1.463       .  S
O201       Al203   1.910       .  S
O202        C204   1.241       .  A
O202       Al203   1.884       .  S
Al203       O211   1.884       .  S
Al203       O757   1.895       .  S
Al203       O212   1.778       .  S
C204        O217   1.264       .  A
C204        C394   1.507   1_455  S
O205        C215   1.278   1_655  A
O205       Al207   1.966   1_655  S
O206        C219   1.249       .  A
O206       Al216   1.856       .  S
Al207       O220   1.921       .  S
Al207       O217   1.946       .  S
Al207       O743   1.926   1_554  S
Al207       O212   1.772       .  S
O208        C215   1.262       .  A
O208       Al216   1.899       .  S
O209        C218   1.245       .  A
O209       Al216   1.905       .  S
O210       Al216   1.920       .  S
O211        C218   1.242       .  A
O212       Al216   1.772       .  S
O213        C214   1.277       .  A
O213       Al747   1.892       .  S
C214        C397   1.464       .  S
C215        C409   1.495   1_455  S
C218        C390   1.465       .  S
C219        O220   1.258       .  A
C219        C482   1.470   1_554  S
O221        C236   1.254       .  A
O221       Al229   1.896       .  S
C222        O232   1.284       .  A
C222        O223   1.283       .  A
C222        C538   1.455       .  S
O223       Al225   1.934       .  S
O224        C226   1.262       .  A
O224       Al225   1.900       .  S
Al225       O233   1.915       .  S
Al225       O235   1.870       .  S
Al225       O234   1.757       .  S
C226        O239   1.282   1_655  A
C226        C381   1.497   1_655  S
O227        C237   1.261   1_455  A
O227       Al229   1.945   1_455  S
O228        C241   1.286       .  A
O228       Al238   1.903       .  S
Al229       O242   1.945       .  S
Al229       O239   1.973   1_655  S
Al229       O234   1.763       .  S
O230        C237   1.236       .  A
O230       Al238   1.849       .  S
O231        C240   1.236       .  A
O231       Al238   1.890       .  S
O232       Al238   1.890       .  S
O233        C240   1.248       .  A
O234       Al238   1.768       .  S
O235        C236   1.252       .  A
C236        C385   1.453       .  S
C237        C406   1.494   1_655  S
C240        C518   1.458       .  S
C241        O242   1.289       .  A
C241        C542   1.464       .  S
O243        C258   1.255       .  A
O243       Al251   1.903       .  S
C244        O254   1.282       .  A
C244        O245   1.282       .  A
C244        C377   1.462       .  S
O245       Al247   1.934       .  S
O246        C248   1.258       .  A
O246       Al247   1.887       .  S
Al247       O255   1.900       .  S
Al247       O257   1.860       .  S
Al247       O256   1.771       .  S
C248        O261   1.280   1_655  A
C248        C382   1.497   1_655  S
O249        C259   1.261   1_455  A
O249       Al795   1.939   1_455  S
O250        C263   1.278       .  A
O250       Al804   1.876   1_554  S
Al251       O264   1.948   1_556  S
Al251       O793   1.963   1_655  S
Al251       O805   1.989   1_655  S
Al251       O800   1.768       .  S
O252        C259   1.240       .  A
O252       Al260   1.866       .  S
O253        C262   1.243       .  A
O253       Al260   1.887       .  S
O254       Al260   1.895       .  S
O255        C262   1.242       .  A
O256       Al260   1.777       .  S
O256       Al795   1.769       .  S
O257        C802   1.251       .  A
C258        O801   1.250       .  A
C258        C522   1.456   1_556  S
C259        C937   1.492   1_655  S
Al260       O794   1.898       .  S
O261       Al795   1.976   1_455  S
C262        C369   1.462       .  S
C263        O264   1.288       .  A
C263        C373   1.453       .  S
O265        C280   1.257       .  A
O265       Al273   1.877       .  S
C266        O276   1.265       .  A
C266        O267   1.270       .  A
C266        C374   1.465       .  S
O267       Al269   1.931       .  S
O268        C270   1.247       .  A
O268       Al269   1.848       .  S
Al269       O277   1.836       .  S
Al269       O279   1.912       .  S
Al269       O278   1.787       .  S
C270        O283   1.268       .  A
C270        C361   1.484       .  S
O271        C281   1.277       .  A
O271       Al273   1.966       .  S
O272        C285   1.262       .  A
O272       Al282   1.874       .  S
Al273       O286   1.916       .  S
Al273       O283   1.943       .  S
Al273       O278   1.796       .  S
O274        C281   1.260       .  A
O274       Al282   1.916       .  S
O275        C284   1.251       .  A
O275       Al282   1.912       .  S
O276       Al282   1.857       .  S
O277        C284   1.243       .  A
O278       Al282   1.785       .  S
O279        C280   1.264       .  A
C280        C378   1.458       .  S
C281        C365   1.505       .  S
C284        C386   1.457       .  S
C285        O286   1.265       .  A
C285        C418   1.453       .  S
O287        C302   1.257       .  A
O287       Al839   1.878       .  S
C288        O298   1.266       .  A
C288        O289   1.270       .  A
C288        C421   1.468       .  S
O289       Al291   1.927       .  S
O290        C292   1.247       .  A
O290       Al291   1.852       .  S
Al291       O299   1.833       .  S
Al291       O845   1.914   1_554  S
Al291       O300   1.781       .  S
C292        O305   1.273       .  A
C292        C357   1.516       .  S
O293        C303   1.281       .  A
O293       Al295   1.974       .  S
O294        C307   1.264       .  A
O294       Al304   1.889       .  S
Al295       O308   1.931       .  S
Al295       O305   1.983       .  S
Al295       O831   1.868   1_554  S
Al295       O300   1.800       .  S
O296        C303   1.259       .  A
O296       Al304   1.903       .  S
O297        C306   1.250       .  A
O297       Al304   1.910       .  S
O298       Al304   1.874       .  S
O299        C306   1.243       .  A
O300       Al304   1.785       .  S
O301        C302   1.263       .  A
O301       Al835   1.909       .  S
C302        C426   1.456       .  S
C303        C366   1.503       .  S
C306        C434   1.457       .  S
C307        O308   1.269       .  A
C307        C370   1.466   1_554  S
O309        C324   1.257       .  A
O309       Al317   1.905       .  S
C310        O320   1.275       .  A
C310        O311   1.284       .  A
C310        C398   1.463       .  S
O311       Al313   1.942       .  S
O312        C314   1.260       .  A
O312       Al313   1.889       .  S
Al313       O321   1.916       .  S
Al313       O323   1.860       .  S
Al313       O322   1.771       .  S
C314        O327   1.282       .  A
C314        C353   1.499       .  S
O315        C325   1.269       .  A
O315       Al317   1.969       .  S
O316        C329   1.286       .  A
O316       Al326   1.917       .  S
Al317       O330   1.923       .  S
Al317       O327   1.979       .  S
Al317       O322   1.782       .  S
O318        C325   1.231       .  A
O318       Al326   1.807       .  S
O319        C328   1.237       .  A
O319       Al326   1.869       .  S
O320       Al326   1.885       .  S
O321        C328   1.244       .  A
O322       Al326   1.775       .  S
O323        C324   1.251       .  A
C324        C437   1.459       .  S
C325        C362   1.498       .  S
C328        C414   1.464       .  S
C329        O330   1.279       .  A
C329        C401   1.467       .  S
O331        C346   1.271       .  A
O331       Al339   1.942   1_554  S
C332        O342   1.283       .  A
C332        O333   1.284       .  A
C332        C446   1.467       .  S
O333       Al335   1.942       .  S
O334        C336   1.260       .  A
O334       Al335   1.893       .  S
Al335       O343   1.912       .  S
Al335       O345   1.868       .  S
Al335       O344   1.765       .  S
C336        O349   1.283       .  A
C336        C354   1.501       .  S
O337        C347   1.264       .  A
O337       Al883   1.950       .  S
O338        C351   1.277       .  A
O338       Al892   1.950   1_554  S
Al339       O352   1.876   1_556  S
Al339       O881   1.975       .  S
Al339       O893   1.981       .  S
Al339       O888   1.793       .  S
O340        C347   1.235       .  A
O340       Al348   1.839       .  S
O341        C350   1.238       .  A
O341       Al348   1.878       .  S
O342       Al348   1.896       .  S
O343        C350   1.246       .  A
O344       Al348   1.769       .  S
O344       Al883   1.772       .  S
O345        C890   1.254       .  A
C346        O889   1.261   1_554  A
C346        C389   1.464       .  S
C347        C902   1.495       .  S
Al348       O882   1.912       .  S
O349       Al883   1.982       .  S
C350        C462   1.464       .  S
C351        O352   1.262       .  A
C351        C449   1.469       .  S
C353        C354   1.365       .  D
C353        H355   1.086       .  S
C354        H356   1.086       .  S
C357        C358   1.378       .  D
C357        H359   1.084       .  S
C358        C891   1.514   1_554  S
C358        H904   1.084       .  S
H360        C902   1.086       .  S
C361        C362   1.379   1_655  D
C361        H363   1.085   1_655  S
C362        H364   1.085       .  S
C365        C366   1.355       .  D
C365        H367   1.087       .  S
C366        H368   1.086       .  S
C369        C914   1.340       .  D
C369        H371   1.088       .  S
C370        C913   1.345       .  D
C370        H372   1.088       .  S
C373        C374   1.339       .  D
C373        H375   1.088       .  S
C374        H376   1.087       .  S
C377        C378   1.334       .  D
C377        H379   1.089       .  S
C378        H380   1.087       .  S
C381        C382   1.362       .  D
C381        H383   1.086       .  S
C382        H384   1.086       .  S
C385        C386   1.340       .  D
C385        H387   1.087       .  S
C386        H388   1.086       .  S
C389        C390   1.346       .  D
C389        H391   1.087       .  S
C390        H392   1.086       .  S
C393        C803   1.509   1_454  S
C393        C394   1.380   1_455  D
C393        H939   1.085       .  S
C394        H396   1.085       .  S
H395        C937   1.087       .  S
C397        C398   1.340       .  D
C397        H399   1.088       .  S
C398        H400   1.087       .  S
C401        C402   1.331       .  D
C401        H403   1.088       .  S
C402        H404   1.088       .  S
C405        C406   1.369   1_665  D
C405        H407   1.086       .  S
C406        H408   1.087       .  S
C409        C410   1.360       .  D
C409        H411   1.086       .  S
C410        H412   1.086       .  S
C413        C414   1.345       .  D
C413        H415   1.087       .  S
C414        H416   1.087       .  S
C417        C418   1.339       .  D
C417        H419   1.088       .  S
C418        H420   1.088       .  S
C421        C422   1.341       .  D
C421        H423   1.086       .  S
C422        H424   1.087       .  S
C425        C426   1.338       .  D
C425        H427   1.086       .  S
C426        H428   1.086       .  S
C429        C430   1.369       .  D
C429        H431   1.085       .  S
C430        H432   1.086       .  S
C433        C434   1.341       .  D
C433        H435   1.088       .  S
C434        H436   1.086       .  S
C437        C438   1.347       .  D
C437        H439   1.086       .  S
C438        H440   1.086       .  S
C441        C442   1.380       .  D
C441        H443   1.085       .  S
C442        H444   1.085       .  S
C445        C446   1.336       .  D
C445        H447   1.086       .  S
C446        H448   1.088       .  S
C449        C450   1.333       .  D
C449        H451   1.087       .  S
C450        H452   1.089       .  S
C453        C693   1.525   1_554  S
C453        C454   1.381       .  D
C453        H455   1.085       .  S
C454        H456   1.084       .  S
C457        C458   1.370       .  D
C457        H459   1.086       .  S
C458        H460   1.086       .  S
C461       C1006   1.347   1_554  D
C461        H463   1.086       .  S
C462       C1005   1.349       .  D
C462        H464   1.087       .  S
C465        C466   1.344       .  D
C465        H467   1.087       .  S
C466        H468   1.087       .  S
C469        C470   1.349       .  D
C469        H471   1.085       .  S
C470        H472   1.086       .  S
C473        C474   1.335       .  D
C473        H475   1.089       .  S
C474        H476   1.087       .  S
C477        C478   1.337       .  D
C477        H479   1.088       .  S
C478        H480   1.087       .  S
C481       C1026   1.347       .  D
C481        H483   1.086       .  S
C482       C1025   1.349       .  D
C482        H484   1.086       .  S
C485        C486   1.364       .  D
C485        H487   1.086       .  S
C486        H488   1.086       .  S
C489        C490   1.337       .  D
C489       H1035   1.087       .  S
C490        H492   1.086       .  S
H491       C1033   1.087       .  S
C493        C494   1.340       .  D
C493        H495   1.088       .  S
C494        H496   1.087       .  S
C497        C498   1.333       .  D
C497        H499   1.087       .  S
C498        H500   1.088       .  S
C501        C502   1.340       .  D
C501        H503   1.086       .  S
C502        H504   1.088       .  S
C505        C506   1.379   1_545  D
C505        H507   1.086       .  S
C506        H508   1.086       .  S
C509        C510   1.325       .  D
C509        H511   1.088       .  S
C510        H512   1.087       .  S
C513        C514   1.334       .  D
C513        H515   1.088       .  S
C514        H516   1.087       .  S
C517        C518   1.334       .  D
C517        H519   1.088       .  S
C518        H520   1.088       .  S
C521        C522   1.341       .  D
C521        H523   1.087       .  S
C522        H524   1.087       .  S
C525        C605   1.500   1_544  S
C525        C526   1.376   1_445  D
C525       H1071   1.085       .  S
C526        H528   1.086       .  S
H527       C1069   1.085       .  S
C529        C530   1.353   1_565  D
C529        H531   1.086       .  S
C530        H532   1.087       .  S
C533       C1078   1.345   1_554  D
C533        H535   1.087       .  S
C534       C1077   1.351       .  D
C534        H536   1.085       .  S
C537        C538   1.331       .  D
C537        H539   1.088       .  S
C538        H540   1.088       .  S
C541        C542   1.346       .  D
C541        H543   1.086       .  S
C542        H544   1.087       .  S
O545        C560   1.261       .  A
C546        O556   1.265       .  A
C546        O547   1.273       .  A
C546       C1085   1.468       .  S
O547       Al549   1.936       .  S
O548        C550   1.246       .  A
O548       Al549   1.845       .  S
Al549       O557   1.824       .  S
Al549       O558   1.774       .  S
C550        O563   1.268   1_545  A
C550       C1070   1.489   1_545  S
O551        C561   1.276       .  A
O551       Al553   1.958       .  S
O552        C565   1.262       .  A
O552       Al562   1.889       .  S
Al553       O566   1.931       .  S
Al553       O563   1.953   1_545  S
Al553       O558   1.790       .  S
O554        C561   1.263       .  A
O554       Al562   1.916       .  S
O555        C564   1.251       .  A
O555       Al562   1.915       .  S
O556       Al562   1.870       .  S
O557        C564   1.241       .  A
O558       Al562   1.787       .  S
O559        C560   1.269   1_554  A
C560       C1081   1.457       .  S
C561       C1073   1.494   1_545  S
C564       C1065   1.453       .  S
C565        O566   1.269       .  A
C565       C1077   1.465       .  S
O567        C582   1.258       .  A
O567       Al575   1.862       .  S
C568        O578   1.259       .  A
C568        O569   1.266       .  A
C568       C1057   1.447       .  S
O569       Al571   1.914       .  S
O570        C572   1.253       .  A
O570       Al571   1.862       .  S
Al571       O579   1.832       .  S
Al571       O581   1.894       .  S
Al571       O580   1.787       .  S
C572        O585   1.273       .  A
C572       C1050   1.498   1_545  S
O573        C583   1.276       .  A
O573       Al575   1.964       .  S
O574        C587   1.254       .  A
O574       Al584   1.861       .  S
Al575       O588   1.942       .  S
Al575       O585   1.968       .  S
Al575       O580   1.780       .  S
O576        C583   1.258       .  A
O576       Al584   1.902       .  S
O577        C586   1.252       .  A
O577       Al584   1.910       .  S
O578       Al584   1.840       .  S
O579        C586   1.245       .  A
O580       Al584   1.788       .  S
O581        C582   1.259       .  A
C582       C1053   1.447       .  S
C583       C1074   1.494       .  S
C586       C1045   1.454       .  S
C587        O588   1.273       .  A
C587       C1061   1.462       .  S
O589        C604   1.253       .  A
O589       Al597   1.880       .  S
C590        O600   1.279       .  A
C590        O591   1.278       .  A
C590       C1041   1.457       .  S
O591       Al593   1.926       .  S
O592        C594   1.260       .  A
O592       Al593   1.889       .  S
Al593       O601   1.912       .  S
Al593       O603   1.877       .  S
Al593       O602   1.772       .  S
C594        O607   1.284   1_565  A
C594       C1029   1.505   1_565  S
O595        C605   1.267   1_545  A
O596        C609   1.279       .  A
Al597       O610   1.909       .  S
O598        C605   1.239       .  A
O598       Al606   1.853       .  S
O599        C608   1.242       .  A
O599       Al606   1.889       .  S
O600       Al606   1.887       .  S
O601        C608   1.247       .  A
O602       Al606   1.787       .  S
C604       C1033   1.453       .  S
C608       C1025   1.468       .  S
C609        O610   1.268       .  A
C609       C1037   1.462       .  S
O611        C626   1.255       .  A
O611       Al619   1.897       .  S
C612        O622   1.278       .  A
C612        O613   1.278       .  A
C612       C1017   1.456       .  S
O613       Al615   1.927       .  S
O614        C616   1.259       .  A
O614       Al615   1.885       .  S
Al615       O623   1.911       .  S
Al615       O625   1.871       .  S
Al615       O624   1.776       .  S
C616        O629   1.284   1_565  A
C616       C1030   1.505   1_565  S
O617        C627   1.273   1_545  A
O617       Al619   1.979   1_545  S
O618        C631   1.279       .  A
O618       Al628   1.908       .  S
Al619       O632   1.926       .  S
Al619       O629   1.982   1_565  S
Al619       O624   1.780       .  S
O620        C627   1.237       .  A
O620       Al628   1.841       .  S
O621        C630   1.239       .  A
O621       Al628   1.876       .  S
O622       Al628   1.894       .  S
O623        C630   1.245       .  A
O624       Al628   1.785       .  S
O625        C626   1.252       .  A
C626       C1021   1.461       .  S
C627       C1049   1.508   1_565  S
C630       C1009   1.462       .  S
C631        O632   1.280       .  A
C631       C1014   1.467       .  S
O633        C648   1.267       .  A
C634        O644   1.263       .  A
C634        O635   1.274       .  A
C634       C1013   1.468       .  S
O635       Al637   1.938       .  S
O636        C638   1.246       .  A
O636       Al637   1.852       .  S
Al637       O645   1.835       .  S
Al637       O646   1.779       .  S
C638        O651   1.269       .  A
C638        C998   1.495   1_565  S
O639        C649   1.279       .  A
O639       Al641   1.970       .  S
O640        C653   1.259       .  A
O640       Al650   1.863       .  S
Al641       O654   1.951       .  S
Al641       O651   1.958       .  S
Al641       O646   1.784       .  S
O642        C649   1.263       .  A
O642       Al650   1.934       .  S
O643        C652   1.253       .  A
O643       Al650   1.917       .  S
O644       Al650   1.865       .  S
O645        C652   1.241       .  A
O646       Al650   1.785       .  S
O647        C648   1.273       .  A
C648       C1018   1.464       .  S
C649       C1001   1.502       .  S
C652       C1034   1.461       .  S
C653        O654   1.273       .  A
C653       C1005   1.466       .  S
O655        C670   1.261       .  A
O655       Al663   1.888       .  S
C656        O666   1.264       .  A
C656        O657   1.279       .  A
C656        C994   1.480       .  S
O657       Al659   1.961       .  S
O658        C660   1.246       .  A
O658       Al659   1.850       .  S
Al659       O667   1.843       .  S
Al659       O669   1.941       .  S
Al659       O668   1.771       .  S
C660        O673   1.269       .  A
C660        C986   1.500       .  S
O661        C671   1.281       .  A
O661       Al663   1.977       .  S
O662        C675   1.261       .  A
O662       Al672   1.867       .  S
Al663       O676   1.940       .  S
Al663       O673   1.966       .  S
Al663       O668   1.788       .  S
O664        C671   1.261       .  A
O664       Al672   1.926       .  S
O665        C674   1.253       .  A
O665       Al672   1.919       .  S
O666       Al672   1.868       .  S
O667        C674   1.243       .  A
O668       Al672   1.785       .  S
O669        C670   1.274       .  A
C670        C989   1.478       .  S
C671       C1002   1.501       .  S
C674        C982   1.464       .  S
C675        O676   1.272       .  A
C675       C1010   1.459       .  S
O677        C692   1.256       .  A
O677       Al685   1.900       .  S
C678        O688   1.264       .  A
C678        O679   1.264       .  A
C678       C1054   1.445       .  S
O679       Al681   1.861       .  S
O680        C682   1.262       .  A
O680       Al681   1.919       .  S
Al681       O689   1.926       .  S
Al681       O691   1.875       .  S
Al681       O690   1.778       .  S
C682        O695   1.286       .  A
C682        C974   1.520       .  S
O683        C693   1.276       .  A
O684        C697   1.262       .  A
Al685       O698   1.903       .  S
O686        C693   1.251       .  A
O686       Al694   1.858       .  S
O687        C696   1.246       .  A
O687       Al694   1.856       .  S
O688       Al694   1.906       .  S
O689        C696   1.255       .  A
O690       Al694   1.783       .  S
C692        C977   1.452       .  S
C696       C1078   1.469       .  S
C697        O698   1.269       .  A
C697       C1058   1.442       .  S
O699        C714   1.248       .  A
O699       Al707   1.867       .  S
C700        O710   1.279       .  A
C700        O701   1.281       .  A
C700        C969   1.456       .  S
O701       Al703   1.934       .  S
O702        C704   1.256       .  A
O702       Al703   1.875       .  S
Al703       O711   1.896       .  S
Al703       O713   1.879       .  S
Al703       O712   1.769       .  S
C704        O717   1.290       .  A
C704        C973   1.517       .  S
O705        C715   1.270       .  A
O705       Al707   1.956       .  S
O706        C719   1.278       .  A
O706       Al716   1.886       .  S
Al707       O720   1.950       .  S
Al707       O717   2.011       .  S
Al707       O712   1.777       .  S
O708        C715   1.238       .  A
O708       Al716   1.853       .  S
O709        C718   1.243       .  A
O709       Al716   1.891       .  S
O710       Al716   1.879       .  S
O711        C718   1.243       .  A
O712       Al716   1.781       .  S
O713        C714   1.255       .  A
C714       C1046   1.448       .  S
C715        C985   1.506       .  S
C718        C961   1.462       .  S
C719        O720   1.286       .  A
C719        C966   1.461       .  S
O721        C736   1.268       .  A
O721       Al729   1.875       .  S
C722        O732   1.256       .  A
C722        O723   1.276       .  A
C722       C1038   1.462       .  S
O723       Al725   1.933       .  S
O724        C726   1.244   1_455  A
O724       Al725   1.857       .  S
Al725       O733   1.838       .  S
Al725       O735   1.931       .  S
Al725       O734   1.778       .  S
C726        O739   1.258       .  A
C726        C949   1.499       .  S
O727        C737   1.280   1_655  A
O727       Al729   1.954   1_655  S
O728        C741   1.250       .  A
O728       Al738   1.855       .  S
Al729       O742   1.944       .  S
Al729       O739   1.941   1_455  S
Al729       O734   1.793       .  S
O730        C737   1.270       .  A
O730       Al738   1.939       .  S
O731        C740   1.249       .  A
O731       Al738   1.903       .  S
O732       Al738   1.852       .  S
O733        C740   1.241       .  A
O734       Al738   1.784       .  S
O735        C736   1.278       .  A
C736       C1042   1.454       .  S
C737        C954   1.494   1_455  S
C740       C1022   1.467       .  S
C741        O742   1.265       .  A
C741        C957   1.458       .  S
O743        C758   1.283       .  A
C744        O754   1.280       .  A
C744        O745   1.280       .  A
C744        C946   1.456       .  S
O745       Al747   1.892       .  S
O746        C748   1.242       .  A
O746       Al747   1.881       .  S
Al747       O755   1.888       .  S
Al747       O756   1.786       .  S
C748        O761   1.261       .  A
C748        C938   1.491   1_455  S
O749        C759   1.276   1_655  A
O749       Al751   1.969   1_655  S
O750        C763   1.252       .  A
O750       Al760   1.871       .  S
Al751       O764   1.893       .  S
Al751       O761   1.937       .  S
Al751       O756   1.770       .  S
O752        C759   1.255       .  A
O752       Al760   1.875       .  S
O753        C762   1.242       .  A
O753       Al760   1.887       .  S
O754       Al760   1.928       .  S
O755        C762   1.243       .  A
O756       Al760   1.774       .  S
O757        C758   1.280   1_554  A
C758        C941   1.457       .  S
C759        C953   1.490   1_455  S
C762        C934   1.457       .  S
C763        O764   1.255       .  A
C763       C1026   1.460       .  S
O765        C780   1.255       .  A
O765       Al773   1.899       .  S
C766        O776   1.283       .  A
C766        O767   1.285       .  A
C766       C1082   1.456       .  S
O767       Al769   1.943       .  S
O768        C770   1.262       .  A
O768       Al769   1.898       .  S
Al769       O777   1.922       .  S
Al769       O779   1.882       .  S
Al769       O778   1.759       .  S
C770        O783   1.287   1_655  A
C770        C925   1.504   1_655  S
O771        C781   1.267   1_455  A
O771       Al773   1.967   1_455  S
O772        C785   1.285       .  A
O772       Al782   1.904       .  S
Al773       O786   1.944       .  S
Al773       O783   1.988   1_655  S
Al773       O778   1.763       .  S
O774        C781   1.235       .  A
O774       Al782   1.844       .  S
O775        C784   1.235       .  A
O775       Al782   1.890       .  S
O776       Al782   1.888       .  S
O777        C784   1.250       .  A
O778       Al782   1.771       .  S
O779        C780   1.253       .  A
C780        C929   1.459       .  S
C781        C950   1.507   1_655  S
C784       C1062   1.460       .  S
C785        O786   1.289       .  A
C785       C1086   1.466       .  S
O787        C802   1.252       .  A
O787       Al795   1.886       .  S
C788        O798   1.282       .  A
C788        O789   1.282       .  A
C788        C921   1.457       .  S
O789       Al791   1.931       .  S
O790        C792   1.261       .  A
O790       Al791   1.892       .  S
Al791       O799   1.913       .  S
Al791       O801   1.861       .  S
Al791       O800   1.765       .  S
C792        O805   1.286   1_655  A
C792        C926   1.503   1_655  S
O793        C803   1.267   1_455  A
O794        C807   1.280       .  A
Al795       O808   1.954       .  S
O796        C803   1.239       .  A
O796       Al804   1.868       .  S
O797        C806   1.243       .  A
O797       Al804   1.891       .  S
O798       Al804   1.890       .  S
O799        C806   1.245       .  A
O800       Al804   1.774       .  S
C802       C1066   1.448       .  S
C806        C913   1.470       .  S
C807        O808   1.288       .  A
C807        C917   1.470       .  S
O809        C824   1.258       .  A
O809       Al817   1.875       .  S
C810        O820   1.266       .  A
C810        O811   1.271       .  A
C810        C918   1.472       .  S
O811       Al813   1.927       .  S
O812        C814   1.248       .  A
O812       Al813   1.855       .  S
Al813       O821   1.844       .  S
Al813       O823   1.913       .  S
Al813       O822   1.788       .  S
C814        O827   1.266       .  A
C814        C905   1.509       .  S
O815        C825   1.278       .  A
O815       Al817   1.968       .  S
O816        C829   1.260       .  A
O816       Al826   1.880       .  S
Al817       O830   1.922       .  S
Al817       O827   1.958       .  S
Al817       O822   1.809       .  S
O818        C825   1.261       .  A
O818       Al826   1.912       .  S
O819        C828   1.251       .  A
O819       Al826   1.909       .  S
O820       Al826   1.881       .  S
O821        C828   1.243       .  A
O822       Al826   1.787       .  S
O823        C824   1.267       .  A
C824        C922   1.455       .  S
C825        C909   1.502       .  S
C828        C930   1.466       .  S
C829        O830   1.265       .  A
C829        C962   1.461       .  S
O831        C846   1.256       .  A
C832        O842   1.266       .  A
C832        O833   1.273       .  A
C832        C965   1.467       .  S
O833       Al835   1.938       .  S
O834        C836   1.249       .  A
O834       Al835   1.851       .  S
Al835       O843   1.847       .  S
Al835       O844   1.776       .  S
C836        O849   1.269       .  A
C836        C901   1.489       .  S
O837        C847   1.279       .  A
O837       Al839   1.969       .  S
O838        C851   1.266       .  A
O838       Al848   1.888       .  S
Al839       O852   1.920       .  S
Al839       O849   1.954       .  S
Al839       O844   1.793       .  S
O840        C847   1.259       .  A
O840       Al848   1.905       .  S
O841        C850   1.251       .  A
O841       Al848   1.924       .  S
O842       Al848   1.864       .  S
O843        C850   1.244       .  A
O844       Al848   1.782       .  S
O845        C846   1.265       .  A
C846        C970   1.451       .  S
C847        C910   1.500       .  S
C850        C978   1.464       .  S
C851        O852   1.267       .  A
C851        C914   1.458       .  S
O853        C868   1.267       .  A
O853       Al861   1.931       .  S
C854        O864   1.269       .  A
C854        O855   1.263       .  A
C854        C942   1.461       .  S
O855       Al857   1.862       .  S
O856        C858   1.265       .  A
O856       Al857   1.931       .  S
Al857       O865   1.907       .  S
Al857       O867   1.884       .  S
Al857       O866   1.781       .  S
C858        O871   1.284       .  A
C858        C897   1.505       .  S
O859        C869   1.264       .  A
O859       Al861   1.973       .  S
O860        C873   1.273       .  A
O860       Al870   1.924       .  S
Al861       O874   1.884       .  S
Al861       O871   1.978       .  S
Al861       O866   1.798       .  S
O862        C869   1.243       .  A
O862       Al870   1.849       .  S
O863        C872   1.241       .  A
O863       Al870   1.831       .  S
O864       Al870   1.918       .  S
O865        C872   1.251       .  A
O866       Al870   1.781       .  S
O867        C868   1.260       .  A
C868        C981   1.459       .  S
C869        C906   1.512       .  S
C872        C958   1.458       .  S
C873        O874   1.265       .  A
C873        C945   1.460       .  S
O875        C890   1.253       .  A
O875       Al883   1.894       .  S
C876        O886   1.279       .  A
C876        O877   1.261       .  A
C876        C990   1.472       .  S
O877       Al879   1.863       .  S
O878        C880   1.263       .  A
O878       Al879   1.933       .  S
Al879       O887   1.918       .  S
Al879       O889   1.875       .  S
Al879       O888   1.784       .  S
C880        O893   1.283       .  A
C880        C898   1.507       .  S
O881        C891   1.268       .  A
O882        C895   1.285       .  A
Al883       O896   1.951       .  S
O884        C891   1.244       .  A
O884       Al892   1.850       .  S
O885        C894   1.241       .  A
O885       Al892   1.836       .  S
O886       Al892   1.962       .  S
O887        C894   1.253       .  A
O888       Al892   1.779       .  S
C890        C933   1.456       .  S
C894       C1006   1.467       .  S
C895        O896   1.287       .  A
C895        C993   1.475       .  S
C897        C898   1.368       .  D
C897        H899   1.086       .  S
C898        H900   1.086       .  S
C901        C902   1.374       .  D
C901        H903   1.086       .  S
C905        C906   1.374   1_655  D
C905        H907   1.085       .  S
C906        H908   1.086       .  S
C909        C910   1.354       .  D
C909        H911   1.087       .  S
C910        H912   1.086       .  S
C913        H915   1.087       .  S
C914        H916   1.088       .  S
C917        C918   1.344       .  D
C917        H919   1.086       .  S
C918        H920   1.086       .  S
C921        C922   1.332       .  D
C921        H923   1.089       .  S
C922        H924   1.087       .  S
C925        C926   1.368       .  D
C925        H927   1.086       .  S
C926        H928   1.086       .  S
C929        C930   1.341       .  D
C929        H931   1.087       .  S
C930        H932   1.086       .  S
C933        C934   1.339       .  D
C933        H935   1.088       .  S
C934        H936   1.088       .  S
C937        C938   1.370   1_455  D
C938        H940   1.087       .  S
C941        C942   1.342       .  D
C941        H943   1.088       .  S
C942        H944   1.087       .  S
C945        C946   1.333       .  D
C945        H947   1.087       .  S
C946        H948   1.088       .  S
C949        C950   1.378   1_665  D
C949        H951   1.085       .  S
C950        H952   1.084       .  S
C953        C954   1.358       .  D
C953        H955   1.086       .  S
C954        H956   1.086       .  S
C957        C958   1.348       .  D
C957        H959   1.086       .  S
C958        H960   1.086       .  S
C961        C962   1.342       .  D
C961        H963   1.088       .  S
C962        H964   1.088       .  S
C965        C966   1.342       .  D
C965        H967   1.086       .  S
C966        H968   1.087       .  S
C969        C970   1.332       .  D
C969        H971   1.089       .  S
C970        H972   1.087       .  S
C973        C974   1.365       .  D
C973        H975   1.086       .  S
C974        H976   1.087       .  S
C977        C978   1.338       .  D
C977        H979   1.087       .  S
C978        H980   1.086       .  S
C981        C982   1.344       .  D
C981        H983   1.087       .  S
C982        H984   1.086       .  S
C985        C986   1.380       .  D
C985        H987   1.085       .  S
C986        H988   1.085       .  S
C989        C990   1.336       .  D
C989        H991   1.087       .  S
C990        H992   1.088       .  S
C993        C994   1.351       .  D
C993        H995   1.087       .  S
C994        H996   1.086       .  S
C997        C998   1.384       .  D
C997        H999   1.085       .  S
C998       H1000   1.086       .  S
C1001      C1002   1.365       .  D
C1001      H1003   1.086       .  S
C1002      H1004   1.086       .  S
C1005      H1007   1.086       .  S
C1006      H1008   1.086       .  S
C1009      C1010   1.346       .  D
C1009      H1011   1.087       .  S
C1010      H1012   1.088       .  S
C1013      C1014   1.348       .  D
C1013      H1015   1.085       .  S
C1014      H1016   1.086       .  S
C1017      C1018   1.335       .  D
C1017      H1019   1.088       .  S
C1018      H1020   1.088       .  S
C1021      C1022   1.345       .  D
C1021      H1023   1.086       .  S
C1022      H1024   1.086       .  S
C1025      H1027   1.086       .  S
C1026      H1028   1.087       .  S
C1029      C1030   1.360       .  D
C1029      H1031   1.086       .  S
C1030      H1032   1.086       .  S
C1033      C1034   1.342       .  D
C1034      H1036   1.086       .  S
C1037      C1038   1.327       .  D
C1037      H1039   1.087       .  S
C1038      H1040   1.087       .  S
C1041      C1042   1.331       .  D
C1041      H1043   1.089       .  S
C1042      H1044   1.088       .  S
C1045      C1046   1.335       .  D
C1045      H1047   1.086       .  S
C1046      H1048   1.087       .  S
C1049      C1050   1.380   1_545  D
C1049      H1051   1.085       .  S
C1050      H1052   1.085       .  S
C1053      C1054   1.333       .  D
C1053      H1055   1.088       .  S
C1054      H1056   1.087       .  S
C1057      C1058   1.339       .  D
C1057      H1059   1.089       .  S
C1058      H1060   1.089       .  S
C1061      C1062   1.333       .  D
C1061      H1063   1.088       .  S
C1062      H1064   1.088       .  S
C1065      C1066   1.341       .  D
C1065      H1067   1.086       .  S
C1066      H1068   1.088       .  S
C1069      C1070   1.383   1_445  D
C1070      H1072   1.085       .  S
C1073      C1074   1.352   1_565  D
C1073      H1075   1.087       .  S
C1074      H1076   1.086       .  S
C1077      H1079   1.086       .  S
C1078      H1080   1.085       .  S
C1081      C1082   1.334       .  D
C1081      H1083   1.088       .  S
C1082      H1084   1.089       .  S
C1085      C1086   1.344       .  D
C1085      H1087   1.086       .  S
C1086      H1088   1.087       .  S
