geometry optimzed in LAMMPS
_audit_creation_date              2020-12-01 
_audit_creation_method            'lammps2cif' 
_symmetry_space_group_name_H-M    'P1' 
_symmetry_Int_Tables_number       1 
_symmetry_cell_setting            triclinic 
loop_ 
_symmetry_equiv_pos_as_xyz 
  x,y,z 
_cell_length_a                    36.15532528 
_cell_length_b                    36.23809251967056 
_cell_length_c                    48.70568923180696 
_cell_angle_alpha                 89.9640943892761 
_cell_angle_beta                  90.18558319251207 
_cell_angle_gamma                 119.92873074076529 
loop_ 
_atom_site_label 
_atom_site_type_symbol 
_atom_site_fract_x 
_atom_site_fract_y 
_atom_site_fract_z 
_atom_site_charge 
O1          O  0.44288106  0.62002624  0.62339002    -0.85900
O2          O  0.45569461  0.66385987  0.57491660    -0.82900
C3          C  0.46053226  0.67271501  0.54974859     0.97600
O4          O  0.46907705  0.65071029  0.53372543    -0.83000
O5          O  0.54494220  0.65662233  0.55877681    -0.85600
C6          C  0.56572247  0.64791313  0.57657992     1.02100
O7          O  0.54913884  0.61060998  0.58656965    -0.78400
O8          O  0.50191135  0.61682420  0.62801863    -0.78600
C9          C  0.47541515  0.62696145  0.63698669     1.02100
O10         O  0.38727207  0.54342928  0.59615506    -0.85900
O11         O  0.39746984  0.58502398  0.54867766    -0.82900
C12         C  0.39809357  0.55707323  0.53368472     0.97600
O13         O  0.43370778  0.55978328  0.52791884    -0.83000
O14         O  0.51426701  0.57146996  0.54165913    -0.85600
C15         C  0.49417845  0.53346730  0.54947735     1.02100
O16         O  0.47634275  0.52589885  0.57267908    -0.78400
O17         O  0.43445916  0.53400339  0.61842778    -0.78500
C18         C  0.39628710  0.52445297  0.61423131     1.02000
Cr19       Cr  0.42446192  0.60284040  0.58516054     1.93700
Cr20       Cr  0.48922520  0.60919688  0.54271793     1.93200
Cr21       Cr  0.48899324  0.57311347  0.59938813     1.39100
O22         O  0.46783785  0.59572553  0.57634827    -1.23600
O23         O  0.85155898  0.83725250  0.56796862    -0.85900
O24         O  0.83818908  0.86714490  0.61727841    -0.82900
C25         C  0.83380053  0.87071246  0.64264733     0.97600
O26         O  0.83191776  0.84261280  0.65877289    -0.83000
O27         O  0.75925242  0.76766494  0.63691722    -0.85600
C28         C  0.73945299  0.73760828  0.61942475     1.02100
O29         O  0.75810934  0.71894415  0.60932177    -0.78400
O30         O  0.79669095  0.77192756  0.56594493    -0.78600
C31         C  0.81963033  0.80824132  0.55553722     1.02100
O32         O  0.91613921  0.82656875  0.59236981    -0.85900
O33         O  0.90603019  0.85768417  0.64102447    -0.82900
C34         C  0.91099187  0.83113377  0.65499400     0.97600
O35         O  0.87826691  0.79645136  0.66225938    -0.83000
O36         O  0.80130089  0.72148019  0.65254688    -0.85600
C37         C  0.82344223  0.70660252  0.64304507     1.02100
O38         O  0.83809585  0.71736465  0.61915558    -0.78400
O39         O  0.87064617  0.76616180  0.57294495    -0.78500
C40         C  0.90807607  0.79672790  0.57583154     1.02000
Cr41       Cr  0.87479579  0.84326141  0.60545149     1.93700
Cr42       Cr  0.81867229  0.78281374  0.65046498     1.93200
Cr43       Cr  0.81721600  0.74661610  0.59380712     1.39100
O44         O  0.83660244  0.79121730  0.61599791    -1.23600
O45         O  0.83431479  0.51870438  0.80436682    -0.85900
O46         O  0.89042931  0.54420960  0.76323922    -0.82900
C47         C  0.90462770  0.53857065  0.74121652     0.97600
O48         O  0.88119279  0.52481722  0.71975955    -0.83000
O49         O  0.81317639  0.44064521  0.72197564    -0.85600
C50         C  0.77761309  0.40911601  0.72809022     1.02100
O51         O  0.75202971  0.41518704  0.74221439    -0.78400
O52         O  0.79737139  0.45176909  0.79069536    -0.78600
C53         C  0.82013911  0.47923710  0.80851255     1.02100
O54         O  0.79465988  0.56313456  0.77876588    -0.85900
O55         O  0.85443532  0.59172394  0.73744869    -0.82900
C56         C  0.83887146  0.58596188  0.71341334     0.97600
O57         O  0.81940735  0.54947434  0.70295687    -0.83000
O58         O  0.75226626  0.46880729  0.70471073    -0.85600
C59         C  0.72195725  0.46949762  0.71794389     1.02100
O60         O  0.72508605  0.47588926  0.74345049    -0.78400
O61         O  0.75615284  0.49959538  0.79549616    -0.78500
C62         C  0.76779750  0.53861134  0.79591594     1.02000
Cr63       Cr  0.84083316  0.55084823  0.76907727     1.93700
Cr64       Cr  0.81615927  0.49654841  0.71517455     1.93200
Cr65       Cr  0.76129159  0.46364690  0.76652848     1.39100
O66         O  0.80670469  0.50410379  0.75003491    -1.23600
O67         O  0.14223763  0.65975121  0.72675948    -0.85900
O68         O  0.09906222  0.67392233  0.76791550    -0.82900
C69         C  0.07914261  0.63530848  0.77511090     0.97600
O70         O  0.09639747  0.62270711  0.79309898    -0.83000
O71         O  0.16619962  0.62004014  0.81994765    -0.85600
C72         C  0.17079919  0.59614419  0.80321936     1.02100
O73         O  0.17896227  0.60714326  0.77853833    -0.78400
O74         O  0.19977347  0.65409190  0.73148019    -0.78600
C75         C  0.16678738  0.64681835  0.71810701     1.02100
O76         O  0.21508927  0.73987736  0.73668731    -0.85900
O77         O  0.17528521  0.75384316  0.78164281    -0.82900
C78         C  0.15638075  0.74672143  0.80452200     0.97600
O79         O  0.13331656  0.70871936  0.81191633    -0.83000
O80         O  0.20901457  0.71193622  0.82738054    -0.85600
C81         C  0.24343443  0.71180914  0.82210193     1.02100
O82         O  0.24139815  0.68147088  0.80815913    -0.78400
O83         O  0.25811076  0.72717516  0.76147996    -0.78500
C84         C  0.25205231  0.74677091  0.74240307     1.02000
Cr85       Cr  0.15912626  0.70549156  0.75500893     1.93700
Cr86       Cr  0.15243489  0.66622057  0.81125556     1.93200
Cr87       Cr  0.21659106  0.66810275  0.77046369     1.39100
O88         O  0.17607372  0.67970956  0.77843619    -1.23600
O89         O  0.12704680  0.94915567  0.97127721    -0.85900
O90         O  0.12792088  0.99798957  0.92706799    -0.82900
C91         C  0.12880006  0.00980652  0.90258605     0.97600
O92         O  0.13424345  0.98952733  0.88350451    -0.83000
O93         O  0.21296902  0.99395282  0.89741116    -0.85600
C94         C  0.23666892  0.98370356  0.91109531     1.02100
O95         O  0.22274521  0.94502924  0.91668684    -0.78400
O96         O  0.18863223  0.95135525  0.96630254    -0.78600
C97         C  0.16332263  0.95824011  0.98042175     1.02100
O98         O  0.06704780  0.87431110  0.94390512    -0.85900
O99         O  0.06470210  0.92186930  0.90098447    -0.82900
C100        C  0.06227374  0.89690742  0.88216397     0.97600
O101        O  0.09620190  0.90014114  0.87195199    -0.83000
O102        O  0.17767945  0.90916529  0.87471985    -0.85600
C103        C  0.16348774  0.87157059  0.88305707     1.02100
O104        O  0.15019633  0.86263828  0.90747045    -0.78400
O105        O  0.12050781  0.86803864  0.95894515    -0.78500
C106        C  0.08133265  0.85569609  0.95877673     1.02000
Cr107      Cr  0.10006501  0.93562656  0.93462695     1.93700
Cr108      Cr  0.15470581  0.94743869  0.88417145     1.93200
Cr109      Cr  0.16851884  0.90830339  0.93589312     1.39100
O110        O  0.14108857  0.93065313  0.91863136    -1.23600
O111        O  0.51912886  0.16214899  0.89502845    -0.85900
O112        O  0.55405716  0.20248973  0.94488158    -0.82900
C113        C  0.52422227  0.20385615  0.95736905     0.97600
O114        O  0.49241013  0.17010360  0.96561603    -0.83000
O115        O  0.43225841  0.08427201  0.96617189    -0.85600
C116        C  0.41192123  0.07407628  0.94340307     1.02100
O117        O  0.42939362  0.07214636  0.92171998    -0.78400
O118        O  0.48933215  0.09471498  0.88298831    -0.78600
C119        C  0.50081054  0.13303842  0.87735972     1.02100
O120        O  0.56711744  0.12064145  0.89823185    -0.85900
O121        O  0.59184679  0.14994240  0.94897005    -0.82900
C122        C  0.59220468  0.15727296  0.97409617     0.97600
O123        O  0.55899702  0.15353389  0.98587012    -0.83000
O124        O  0.49988558  0.06849346  0.98540348    -0.85600
C125        C  0.47892615  0.03167371  0.97555298     1.02100
O126        O  0.46229518  0.02574865  0.95189311    -0.78400
O127        O  0.52845675  0.05614248  0.91444701    -0.78500
C128        C  0.55825891  0.08240096  0.89944528     1.02000
Cr129      Cr  0.55458063  0.15585403  0.92315273     1.93700
Cr130      Cr  0.49662213  0.11846919  0.97313960     1.93200
Cr131      Cr  0.47957901  0.06573099  0.91960267     1.39100
O132        O  0.50990609  0.11329038  0.93873734    -1.23600
O133        O  0.17224578  0.17580983  0.45814880    -0.85900
O134        O  0.21149725  0.22692630  0.41436327    -0.82900
C135        C  0.23016127  0.20703049  0.40633829     0.97600
O136        O  0.21104143  0.17631858  0.38926551    -0.83000
O137        O  0.13935083  0.10151451  0.36753550    -0.85600
C138        C  0.13716701  0.07454590  0.38470690     1.02100
O139        O  0.13317422  0.08003768  0.40981288    -0.78400
O140        O  0.11655415  0.11094167  0.45741866    -0.78600
C141        C  0.14948939  0.13988797  0.46907472     1.02100
O142        O  0.09759817  0.18038373  0.44959145    -0.85900
O143        O  0.13308657  0.22922048  0.40225622    -0.82900
C144        C  0.15151400  0.24068025  0.37929200     0.97600
O145        O  0.17127082  0.22293443  0.37033529    -0.83000
O146        O  0.09381727  0.14737952  0.36071069    -0.85600
C147        C  0.06126994  0.11227082  0.36767498     1.02100
O148        O  0.06603836  0.08677053  0.38289698    -0.78400
O149        O  0.05322493  0.12015646  0.42944457    -0.78500
C150        C  0.06054631  0.14879337  0.44672977     1.02000
Cr151      Cr  0.15209118  0.20013218  0.42930693     1.93700
Cr152      Cr  0.15282913  0.16154300  0.37404209     1.93200
Cr153      Cr  0.09527889  0.10325951  0.41913062     1.39100
O154        O  0.13343306  0.15481190  0.40801313    -1.23600
O155        O  0.45521889  0.30908032  0.39673314    -0.85900
O156        O  0.41785655  0.32443052  0.44013319    -0.82900
C157        C  0.40209824  0.28758708  0.45053757     0.97600
O158        O  0.42466034  0.27886622  0.46678144    -0.83000
O159        O  0.50167780  0.28286310  0.48699991    -0.85600
C160        C  0.50565251  0.25824090  0.47050335     1.02100
O161        O  0.50835213  0.26614944  0.44515064    -0.78400
O162        O  0.51568886  0.30837680  0.39653898    -0.78600
C163        C  0.47863868  0.29545383  0.38719272     1.02100
O164        O  0.52685327  0.39300136  0.39992363    -0.85900
O165        O  0.49370935  0.40850932  0.44804713    -0.82900
C166        C  0.47930563  0.40292321  0.47230753     0.97600
O167        O  0.46068694  0.36569575  0.48164112    -0.83000
O168        O  0.54181181  0.37520728  0.49053754    -0.85600
C169        C  0.57569691  0.37569568  0.48272841     1.02100
O170        O  0.57240393  0.34531477  0.46838902    -0.78400
O171        O  0.57598159  0.38578474  0.42131648    -0.78500
C172        C  0.56545233  0.40305115  0.40299155     1.02000
Cr173      Cr  0.47531566  0.35776960  0.42290608     1.93700
Cr174      Cr  0.48313633  0.32600212  0.47946347     1.93200
Cr175      Cr  0.53989698  0.32692898  0.43354740     1.39100
O176        O  0.49914088  0.33635248  0.44485784    -1.23600
O177        O  0.78743271  0.30342890  0.28796465    -0.85900
O178        O  0.80280496  0.34900771  0.23966864    -0.82900
C179        C  0.80561401  0.35758110  0.21447200     0.97600
O180        O  0.80765219  0.33225209  0.19769570    -0.83000
O181        O  0.87734332  0.32553401  0.21989682    -0.85600
C182        C  0.89483571  0.31223993  0.23706103     1.02100
O183        O  0.87503604  0.27313058  0.24346413    -0.78400
O184        O  0.84000677  0.28900148  0.28853572    -0.78600
C185        C  0.81938120  0.30472510  0.29954338     1.02100
O186        O  0.72005166  0.23128535  0.26213708    -0.85900
O187        O  0.73253564  0.27497451  0.21437487    -0.82900
C188        C  0.72738441  0.24506645  0.19854080     0.97600
O189        O  0.75937209  0.24174086  0.19130354    -0.83000
O190        O  0.83297126  0.23772511  0.20077826    -0.85600
C191        C  0.80926958  0.20030965  0.20921420     1.02100
O192        O  0.79390404  0.19532957  0.23308944    -0.78400
O193        O  0.76328490  0.21242294  0.28100670    -0.78500
C194        C  0.72709038  0.20941618  0.27918015     1.02000
Cr195      Cr  0.76361961  0.28874129  0.25017402     1.93700
Cr196      Cr  0.81867603  0.28403182  0.20455001     1.93200
Cr197      Cr  0.81679016  0.24411878  0.25978155     1.39100
O198        O  0.79943741  0.27232809  0.23867221    -1.23600
O199        O  0.14665388  0.48332837  0.22724485    -0.85900
O200        O  0.16122921  0.52598180  0.27522396    -0.82900
C201        C  0.16599689  0.53430944  0.30041236     0.97600
O202        O  0.16660512  0.50737554  0.31614471    -0.83000
O203        O  0.08671286  0.43275221  0.30027927    -0.85600
C204        C  0.06238897  0.39930615  0.28627449     1.02100
O205        O  0.07659001  0.37596343  0.27708139    -0.78400
O206        O  0.10565893  0.41318721  0.22749344    -0.78600
C207        C  0.11547207  0.44942061  0.21816423     1.02100
O208        O  0.22075650  0.47578319  0.23444813    -0.85900
O209        O  0.23367603  0.51251920  0.28547671    -0.82900
C210        C  0.23910380  0.49144543  0.30445615     0.97600
O211        O  0.20761031  0.46004447  0.31649708    -0.83000
O212        O  0.12520215  0.38458172  0.31755278    -0.85600
C213        C  0.14080337  0.36324590  0.30805853     1.02100
O214        O  0.15507263  0.37078073  0.28396885    -0.78400
O215        O  0.18005566  0.40633977  0.23300475    -0.78500
C216        C  0.21257069  0.43992084  0.22524361     1.02000
Cr217      Cr  0.18788082  0.49518628  0.25713510     1.93700
Cr218      Cr  0.14682488  0.44602201  0.30967770     1.93200
Cr219      Cr  0.13153613  0.39561858  0.25694323     1.39100
O220        O  0.15600540  0.44585955  0.27393853    -1.23600
O221        O  0.81056964  0.00685971  0.05125933    -0.85900
O222        O  0.75332934  0.97150032  0.09070386    -0.82900
C223        C  0.73745715  0.95196569  0.11253250     0.97600
O224        O  0.75914871  0.96226588  0.13484444    -0.83000
O225        O  0.82643735  0.94470343  0.13408476    -0.85600
C226        C  0.86157363  0.94763622  0.12793955     1.02100
O227        O  0.88786301  0.97901985  0.11375395    -0.78400
O228        O  0.84582196  0.97460405  0.06417029    -0.78600
C229        C  0.82420259  0.98133390  0.04651383     1.02100
O230        O  0.84717783  0.08801853  0.07943835    -0.85900
O231        O  0.78368970  0.05231587  0.11893090    -0.82900
C232        C  0.79918724  0.06269785  0.14294645     0.97600
O233        O  0.82141734  0.04822871  0.15282989    -0.83000
O234        O  0.88790928  0.03308649  0.15229743    -0.85600
C235        C  0.91879169  0.06399508  0.13943003     1.02100
O236        O  0.91636818  0.06766002  0.11395680    -0.78400
O237        O  0.88726041  0.06450542  0.06240020    -0.78500
C238        C  0.87575246  0.09214062  0.06300150     1.02000
Cr239      Cr  0.80128762  0.02876423  0.08697455     1.93700
Cr240      Cr  0.82422570  0.99808741  0.14078384     1.93200
Cr241      Cr  0.88071525  0.02067798  0.08994653     1.39100
O242        O  0.83496855  0.01563310  0.10610583    -1.23600
O243        O  0.50529542  0.85236891  0.12897129    -0.85900
O244        O  0.54443205  0.89336305  0.08013004    -0.82900
C245        C  0.56455127  0.87430236  0.07366398     0.97600
O246        O  0.54696078  0.84227042  0.05703213    -0.83000
O247        O  0.47290798  0.76336295  0.03427950    -0.85600
C248        C  0.47094742  0.73460220  0.04931200     1.02100
O249        O  0.47385126  0.74101844  0.07467008    -0.78400
O250        O  0.49069040  0.78604913  0.12176143    -0.78600
C251        C  0.50650256  0.81939639  0.13617956     1.02100
O252        O  0.42946520  0.84915185  0.11071057    -0.85900
O253        O  0.46413558  0.88970151  0.06443653    -0.82900
C254        C  0.48229047  0.89991709  0.04161513     0.97600
O255        O  0.50382126  0.88311475  0.03485506    -0.83000
O256        O  0.42449477  0.80245578  0.03405905    -0.85600
C257        C  0.39334763  0.77105766  0.04672691     1.02100
O258        O  0.39895651  0.75121108  0.06659946    -0.78400
O259        O  0.41168439  0.78327848  0.11986242    -0.78500
C260        C  0.40766119  0.81547387  0.12378688     1.02000
Cr261      Cr  0.48534287  0.86767303  0.09463195     1.93700
Cr262      Cr  0.48654890  0.82267118  0.04301295     1.93200
Cr263      Cr  0.44579695  0.76946112  0.09403690     1.39100
O264        O  0.47196979  0.81946030  0.07770647    -1.23600
O265        O  0.61414285  0.09517612  0.38305694    -0.85900
O266        O  0.64539177  0.06507307  0.42076771    -0.82900
C267        C  0.66904247  0.07131514  0.44106887     0.97600
O268        O  0.66312013  0.08545089  0.46371280    -0.83000
O269        O  0.68266939  0.16983899  0.46373100    -0.85600
C270        C  0.67987214  0.20262341  0.45995190     1.02100
O271        O  0.64740937  0.19908355  0.44768612    -0.78400
O272        O  0.64883826  0.16250303  0.39662295    -0.78600
C273        C  0.64038840  0.13436618  0.37844798     1.02100
O274        O  0.53306117  0.05473365  0.41284837    -0.85900
O275        O  0.56449037  0.02133103  0.45017695    -0.82900
C276        C  0.55722756  0.02834762  0.47451600     0.97600
O277        O  0.57882427  0.06456954  0.48501758    -0.83000
O278        O  0.59660293  0.14605836  0.48517661    -0.85600
C279        C  0.56495732  0.14685093  0.47368054     1.02100
O280        O  0.55855407  0.14051762  0.44835340    -0.78400
O281        O  0.55960699  0.11790381  0.39535345    -0.78500
C282        C  0.53074157  0.07941303  0.39587634     1.02000
Cr283      Cr  0.59068446  0.06258688  0.41850593     1.93700
Cr284      Cr  0.62907105  0.11580600  0.47182099     1.93200
Cr285      Cr  0.60427780  0.15205034  0.42329510     1.39100
O286        O  0.60860485  0.10985580  0.43796808    -1.23600
O287        O  0.75724950  0.94249075  0.45808564    -0.85900
O288        O  0.72431497  0.93979485  0.40614155    -0.82900
C289        C  0.74695389  0.97877589  0.39930039     0.97600
O290        O  0.77975018  0.99032082  0.38382129    -0.83000
O291        O  0.85920848  0.99106405  0.36885550    -0.85600
C292        C  0.88420711  0.02015150  0.38448521     1.02100
O293        O  0.87310633  0.01829249  0.40894827    -0.78400
O294        O  0.82562890  0.99083479  0.45479631    -0.78600
C295        C  0.78983218  0.97607788  0.46631513     1.02100
O296        O  0.76106303  0.86837282  0.44570263    -0.85900
O297        O  0.72721796  0.86087229  0.39644408    -0.82900
C298        C  0.71929850  0.86708962  0.37247590     0.97600
O299        O  0.73813309  0.90473688  0.36405302    -0.83000
O300        O  0.81794665  0.90411858  0.37018208    -0.85600
C301        C  0.84902566  0.90661684  0.38472701     1.02100
O302        O  0.86723342  0.93441317  0.40371407    -0.78400
O303        O  0.82828373  0.91418084  0.45422439    -0.78500
C304        C  0.79510128  0.87878464  0.45830129     1.02000
Cr305      Cr  0.74607400  0.90557405  0.42524115     1.93700
Cr306      Cr  0.79826357  0.94721417  0.37444976     1.93200
Cr307      Cr  0.84482114  0.96246327  0.42875670     1.39100
O308        O  0.79665711  0.93805052  0.41010133    -1.23600
O309        O  0.10981702  0.59175900  0.13934912    -0.85900
O310        O  0.08767472  0.63197902  0.10285200    -0.82900
C311        C  0.09070817  0.65348594  0.08202340     0.97600
O312        O  0.10154836  0.64522001  0.05886792    -0.83000
O313        O  0.18651484  0.66537927  0.05880975    -0.85600
C314        C  0.21953677  0.66340777  0.06393254     1.02100
O315        O  0.21622944  0.63104206  0.07608624    -0.78400
O316        O  0.17768836  0.62662372  0.12740375    -0.78600
C317        C  0.14866546  0.61693987  0.14508231     1.02100
O318        O  0.06772320  0.51547731  0.10664467    -0.85900
O319        O  0.03883044  0.55476786  0.07097225    -0.82900
C320        C  0.04430941  0.54552143  0.04684023     0.97600
O321        O  0.08090765  0.56212326  0.03667913    -0.83000
O322        O  0.16282665  0.58051696  0.03535193    -0.85600
C323        C  0.16319416  0.54828284  0.04589456     1.02100
O324        O  0.15849542  0.54186810  0.07128760    -0.78400
O325        O  0.13148724  0.53723652  0.12313437    -0.78500
C326        C  0.09239845  0.50972128  0.12193335     1.02000
Cr327      Cr  0.07957304  0.57474157  0.10309779     1.93700
Cr328      Cr  0.13254060  0.61207224  0.05006002     1.93200
Cr329      Cr  0.16817117  0.58509746  0.09822323     1.39100
O330        O  0.12666235  0.59097518  0.08371107    -1.23600
O331        O  0.95326411  0.75882337  0.06172434    -0.85900
O332        O  0.95725480  0.71690717  0.10864776    -0.82900
C333        C  0.99576257  0.73454442  0.11719641     0.97600
O334        O  0.00970349  0.76549272  0.13476793    -0.83000
O335        O  0.01686586  0.84556471  0.15751797    -0.85600
C336        C  0.04467716  0.87314789  0.14240087     1.02100
O337        O  0.04136155  0.86555302  0.11716224    -0.78400
O338        O  0.00999066  0.82148954  0.06974992    -0.78600
C339        C  0.98909315  0.78935769  0.05464756     1.02100
O340        O  0.88488413  0.76441212  0.08514961    -0.85900
O341        O  0.88098972  0.71933352  0.12833908    -0.82900
C342        C  0.88958193  0.70721582  0.15019146     0.97600
O343        O  0.92775271  0.72570405  0.15751930    -0.83000
O344        O  0.92955712  0.80838154  0.15786149    -0.85600
C345        C  0.93265585  0.84164002  0.14570593     1.02100
O346        O  0.95901639  0.86071359  0.12616462    -0.78400
O347        O  0.93539047  0.82810119  0.07357606    -0.78500
C348        C  0.89721741  0.79819373  0.07195680     1.02000
Cr349      Cr  0.92221103  0.74315468  0.09744435     1.93700
Cr350      Cr  0.97035622  0.78644144  0.14902903     1.93200
Cr351      Cr  0.98445529  0.84014066  0.09816526     1.39100
O352        O  0.95900557  0.79022093  0.11447139    -1.23600
O353        O  0.66745780  0.44940360  0.29579673    -0.85900
O354        O  0.61749800  0.40726811  0.25042999    -0.82900
C355        C  0.60441031  0.39909157  0.22591770     0.97600
O356        O  0.62504205  0.42649823  0.20761716    -0.83000
O357        O  0.62679225  0.50220674  0.22640976    -0.85600
C358        C  0.63935340  0.53502121  0.24157334     1.02100
O359        O  0.67880538  0.55736400  0.24647905    -0.78400
O360        O  0.66862654  0.51071285  0.29337033    -0.78600
C361        C  0.66016085  0.47714628  0.30623352     1.02100
O362        O  0.74148010  0.46259397  0.26728047    -0.85900
O363        O  0.69264998  0.41966208  0.22252259    -0.82900
C364        C  0.71793751  0.44414173  0.20439917     0.97600
O365        O  0.71547339  0.47609784  0.19618145    -0.83000
O366        O  0.71383957  0.55049653  0.20399673    -0.85600
C367        C  0.75164347  0.57095342  0.21322213     1.02100
O368        O  0.75940945  0.56204977  0.23684163    -0.78400
O369        O  0.74999215  0.52065223  0.28650012    -0.78500
C370        C  0.76061468  0.49258081  0.28419961     1.02000
Cr371      Cr  0.68015314  0.43832242  0.25803299     1.93700
Cr372      Cr  0.67084544  0.48866053  0.21074134     1.93200
Cr373      Cr  0.71257102  0.53440100  0.26416705     1.39100
O374        O  0.68768709  0.48678418  0.24464636    -1.23600
O375        O  0.46558684  0.64637816  0.22341910    -0.85900
O376        O  0.42450687  0.60276913  0.27029229    -0.82900
C377        C  0.41686373  0.59183736  0.29509238     0.97600
O378        O  0.44418433  0.61395469  0.31320579    -0.83000
O379        O  0.51653531  0.60753690  0.29779042    -0.85600
C380        C  0.54939207  0.61533463  0.28391740     1.02100
O381        O  0.57163342  0.65129219  0.27270761    -0.78400
O382        O  0.52258852  0.63967640  0.22694430    -0.78600
C383        C  0.49018840  0.63432508  0.21376259     1.02100
O384        O  0.48616250  0.72407629  0.24882900    -0.85900
O385        O  0.44230376  0.68233651  0.29489896    -0.82900
C386        C  0.46758757  0.70783670  0.31275183     0.97600
O387        O  0.49931011  0.70481741  0.32084892    -0.83000
O388        O  0.57008906  0.69547435  0.31409658    -0.85600
C389        C  0.59245939  0.73144206  0.30290158     1.02100
O390        O  0.58475824  0.73634619  0.27833953    -0.78400
O391        O  0.54104018  0.72495955  0.22967751    -0.92900
C392        C  0.51613525  0.73976766  0.23171166     1.02000
Cr393      Cr  0.45811788  0.66395134  0.26048200     1.93700
Cr394      Cr  0.50725509  0.65597321  0.30907671     1.93200
Cr395      Cr  0.55169649  0.68682396  0.25368113     1.39100
O396        O  0.50550721  0.66869896  0.27414611    -1.23600
O397        O  0.94992321  0.11790325  0.95511187    -0.85900
O398        O  0.92600678  0.07544823  0.90761242    -0.82900
C399        C  0.92570096  0.06455648  0.88330187     0.97600
O400        O  0.95598296  0.08981657  0.86852161    -0.83000
O401        O  0.95581662  0.16896607  0.88347797    -0.85600
C402        C  0.96645769  0.20199220  0.89850930     1.02100
O403        O  0.00332257  0.22260380  0.90959044    -0.78400
O404        O  0.99661754  0.18619206  0.96036114    -0.78600
C405        C  0.96289653  0.15278769  0.96750242     1.02100
O406        O  0.02685831  0.11538920  0.95552995    -0.85900
O407        O  0.01062469  0.08080911  0.90397394    -0.82900
C408        C  0.04066871  0.10139965  0.88668951     0.97600
O409        O  0.04350891  0.13277871  0.87271121    -0.83000
O410        O  0.04234275  0.21131661  0.86747720    -0.85600
C411        C  0.07952497  0.22986755  0.87688611     1.02100
O412        O  0.08444221  0.22240259  0.90134570    -0.78400
O413        O  0.07251075  0.18301400  0.94940802    -0.78500
C414        C  0.06230104  0.14787459  0.96042119     1.02000
Cr415      Cr  0.98034370  0.10119439  0.92898606     1.93700
Cr416      Cr  0.99939941  0.15081762  0.87586453     1.93200
Cr417      Cr  0.03668891  0.19990446  0.92870960     1.39100
O418        O  0.00566527  0.15052689  0.91181444    -1.23600
O419        O  0.80376041  0.30446086  0.89894375    -0.85900
O420        O  0.77265367  0.26325170  0.94802572    -0.82900
C421        C  0.76655549  0.25644937  0.97334349     0.97600
O422        O  0.79400498  0.28221706  0.98990832    -0.83000
O423        O  0.86896216  0.28501895  0.96844823    -0.85600
C424        C  0.89932189  0.29703793  0.95122059     1.02100
O425        O  0.92014953  0.33621742  0.94525856    -0.78400
O426        O  0.87006271  0.31680750  0.89971487    -0.78600
C427        C  0.83370838  0.30053675  0.88871521     1.02100
O428        O  0.81071409  0.37972039  0.92204806    -0.85900
O429        O  0.77859259  0.34020806  0.97023900    -0.82900
C430        C  0.80376240  0.37007866  0.98603902     0.97600
O431        O  0.83834626  0.37244389  0.99415473    -0.83000
O432        O  0.91453855  0.37462880  0.98499802    -0.85600
C433        C  0.92775946  0.41140603  0.97532827     1.02100
O434        O  0.91759155  0.41481749  0.95106720    -0.78400
O435        O  0.87113195  0.39482343  0.90247554    -0.78500
C436        C  0.83892164  0.39947988  0.90431636     1.02000
Cr437      Cr  0.79498493  0.32274326  0.93563228     1.93700
Cr438      Cr  0.85378052  0.32866673  0.98232767     1.93200
Cr439      Cr  0.89207976  0.36434728  0.92626660     1.39100
O440        O  0.84660579  0.33868753  0.94764427    -1.23600
O441        O  0.26583230  0.41224516  0.71368343    -0.85900
O442        O  0.30307654  0.39167229  0.75357492    -0.82900
C443        C  0.32766242  0.40126975  0.77380077     0.97600
O444        O  0.32110009  0.41634620  0.79572779    -0.83000
O445        O  0.33955283  0.50033956  0.79134269    -0.85600
C446        C  0.33573918  0.53169282  0.78430121     1.02100
O447        O  0.30292773  0.52504513  0.77109525    -0.78400
O448        O  0.29990736  0.48114210  0.72305446    -0.78600
C449        C  0.29148094  0.45058502  0.70690144     1.02100
O450        O  0.18729418  0.37435460  0.74539642    -0.85900
O451        O  0.22433555  0.34920652  0.78526918    -0.82900
C452        C  0.21774655  0.35797799  0.80935263     0.97600
O453        O  0.23724252  0.39579155  0.81774495    -0.83000
O454        O  0.25559647  0.47821934  0.81345101    -0.85600
C455        C  0.22428615  0.47930440  0.80199578     1.02100
O456        O  0.21489779  0.46808956  0.77732317    -0.78400
O457        O  0.21086973  0.43631451  0.72619950    -0.78500
C458        C  0.18234844  0.39803018  0.72874812     1.02000
Cr459      Cr  0.24655226  0.38578332  0.75123486     1.93700
Cr460      Cr  0.28665706  0.44636732  0.80180672     1.93200
Cr461      Cr  0.25793573  0.47470222  0.75086740     1.39100
O462        O  0.26408467  0.43538988  0.76811371    -1.23600
O463        O  0.45658352  0.29538535  0.79195458    -0.85900
O464        O  0.40019856  0.27706357  0.74929614    -0.82900
C465        C  0.41821014  0.31532232  0.74170292     0.97600
O466        O  0.44892334  0.32809648  0.72440830    -0.83000
O467        O  0.52433199  0.33244301  0.70060606    -0.85600
C468        C  0.55244075  0.35755567  0.71720962     1.02100
O469        O  0.54901708  0.34789337  0.74225224    -0.78400
O470        O  0.52145129  0.30433457  0.79052647    -0.78600
C471        C  0.49393235  0.31118282  0.80147678     1.02100
O472        O  0.45062299  0.21557091  0.78546394    -0.85900
O473        O  0.39887654  0.19812670  0.73930510    -0.82900
C474        C  0.38626109  0.20339414  0.71613152     0.97600
O475        O  0.40337854  0.24052301  0.70641878    -0.83000
O476        O  0.47867177  0.24020310  0.69522238    -0.85600
C477        C  0.51358083  0.24196595  0.70209108     1.02100
O478        O  0.54024932  0.27278685  0.71645087    -0.78400
O479        O  0.50966227  0.22903614  0.76474753    -0.78500
C480        C  0.48043845  0.20785022  0.78176890     1.02000
Cr481      Cr  0.42968686  0.24813410  0.76484498     1.93700
Cr482      Cr  0.46465144  0.28504865  0.70872117     1.93200
Cr483      Cr  0.52613551  0.28745868  0.75271613     1.39100
O484        O  0.47373247  0.27360848  0.74250668    -1.23600
O485        O  0.14548699  0.95086974  0.56343882    -0.85900
O486        O  0.09799208  0.92161092  0.60926874    -0.82900
C487        C  0.08766276  0.91850276  0.63400182     0.97600
O488        O  0.11356728  0.94624597  0.65002955    -0.83000
O489        O  0.19318760  0.94855082  0.63419926    -0.85600
C490        C  0.22647413  0.96089602  0.61914410     1.02100
O491        O  0.24842375  0.99987318  0.61230292    -0.78400
O492        O  0.21470295  0.99682451  0.56097496    -0.78600
C493        C  0.18153972  0.96397481  0.55257076     1.02100
O494        O  0.14321052  0.02782087  0.56608392    -0.85900
O495        O  0.10488481  0.00521944  0.61674754    -0.82900
C496        C  0.12168718  0.03033890  0.63720496     0.97600
O497        O  0.15359716  0.03294393  0.65078854    -0.83000
O498        O  0.23430902  0.03331474  0.65503649    -0.85600
C499        C  0.25421752  0.07099760  0.64670447     1.02100
O500        O  0.24570333  0.07816535  0.62304849    -0.78400
O501        O  0.21142620  0.07147107  0.57330512    -0.78500
C502        C  0.17701999  0.06243750  0.56160107     1.02000
Cr503      Cr  0.12691779  0.97838184  0.59054599     1.93700
Cr504      Cr  0.17418902  0.99087445  0.64455010     1.93200
Cr505      Cr  0.22614223  0.03392893  0.59376395     1.39100
O506        O  0.17544092  0.00151702  0.60904136    -1.23600
O507        O  0.33129618  0.78374442  0.62945973    -0.85900
O508        O  0.32138701  0.73917444  0.58016854    -0.82900
C509        C  0.28935268  0.73708352  0.56834931     0.97600
O510        O  0.28967569  0.77082040  0.56173362    -0.83000
O511        O  0.31585483  0.85692154  0.55884745    -0.85600
C512        C  0.31181070  0.87262151  0.58129622     1.02100
O513        O  0.33658009  0.87926657  0.60115062    -0.78400
O514        O  0.37130264  0.85226068  0.63926664    -0.78600
C515        C  0.34368183  0.81464742  0.64602342     1.02100
O516        O  0.41964876  0.82091705  0.62483715    -0.85900
O517        O  0.41072420  0.79067207  0.57300643    -0.82900
C518        C  0.40121027  0.78321170  0.54801549     0.97600
O519        O  0.37012620  0.78593768  0.53780681    -0.83000
O520        O  0.39666915  0.86958490  0.53544928    -0.85600
C521        C  0.41990524  0.90652659  0.54463051     1.02100
O522        O  0.41442644  0.91596650  0.56871443    -0.78400
O523        O  0.44792157  0.88422054  0.60686730    -0.78500
C524        C  0.45083115  0.85793168  0.62234283     1.02000
Cr525      Cr  0.37020902  0.78683552  0.60045068     1.93700
Cr526      Cr  0.34479120  0.82185583  0.55120627     1.93200
Cr527      Cr  0.39065703  0.87906404  0.60220165     1.39100
O528        O  0.36808475  0.82947275  0.58456492    -1.23600
O529        O  0.53934400  0.82836703  0.72668926    -0.85900
O530        O  0.57793417  0.86253066  0.77711514    -0.82900
C531        C  0.55916713  0.88236259  0.78529503     0.97600
O532        O  0.52723259  0.86427118  0.80191085    -0.83000
O533        O  0.44459906  0.79265211  0.81961879    -0.85600
C534        C  0.41800772  0.79551489  0.80494757     1.02100
O535        O  0.42587558  0.80183895  0.77971693    -0.78400
O536        O  0.47778915  0.82545087  0.73422501    -0.78600
C537        C  0.51115124  0.83791250  0.72009863     1.02100
O538        O  0.52719276  0.74802706  0.74486122    -0.85900
O539        O  0.56942440  0.77941758  0.79084563    -0.82900
C540        C  0.57896070  0.79489453  0.81445367     0.97600
O541        O  0.56063690  0.81416572  0.82292221    -0.83000
O542        O  0.47446111  0.73736460  0.81676124    -0.85600
C543        C  0.44180497  0.71118146  0.80201225     1.02100
O544        O  0.42867041  0.72318992  0.78127457    -0.78400
O545        O  0.46733642  0.74244534  0.73022525    -0.78500
C546        C  0.49556092  0.73162652  0.72923365     1.02000
Cr547      Cr  0.55004133  0.80423347  0.76115408     1.93700
Cr548      Cr  0.50219034  0.80186437  0.81213974     1.93200
Cr549      Cr  0.45385753  0.77476520  0.75803450     1.39100
O550        O  0.50160738  0.79304063  0.77680702    -1.23600
O551        O  0.68187226  0.12103760  0.80015714    -0.85900
O552        O  0.67302251  0.07104925  0.75797350    -0.82900
C553        C  0.64245435  0.05309761  0.74141280     0.97600
O554        O  0.63697171  0.07332037  0.72183155    -0.83000
O555        O  0.60789446  0.12925540  0.72150569    -0.85600
C556        C  0.60382506  0.16044524  0.72785722     1.02100
O557        O  0.63104996  0.18819678  0.74346765    -0.78400
O558        O  0.63362618  0.13964183  0.78941702    -0.78600
C559        C  0.64585143  0.11866394  0.80410298     1.02100
O560        O  0.76280903  0.18732551  0.77566341    -0.85900
O561        O  0.75190230  0.13426505  0.73378616    -0.82900
C562        C  0.74909665  0.13889017  0.70836652     0.97600
O563        O  0.71788615  0.14076764  0.69858508    -0.83000
O564        O  0.69246198  0.20086267  0.70465626    -0.85600
C565        C  0.71607304  0.23441649  0.71911894     1.02100
O566        O  0.71896410  0.23302794  0.74493297    -0.78400
O567        O  0.71908876  0.20187125  0.79661344    -0.78500
C568        C  0.75601094  0.20762873  0.79376618     1.02000
Cr569      Cr  0.71521288  0.13028133  0.76530332     1.93700
Cr570      Cr  0.66573416  0.13707958  0.71435815     1.93200
Cr571      Cr  0.67600490  0.18710702  0.76704559     1.39100
O572        O  0.68565348  0.15086891  0.74841060    -1.23600
O573        O  0.16985714  0.44951753  0.61908373    -0.85900
O574        O  0.21608657  0.47138219  0.57251598    -0.82900
C575        C  0.22471368  0.47947269  0.54764827     0.97600
O576        O  0.19837137  0.48348914  0.53327684    -0.83000
O577        O  0.11843970  0.40623534  0.55081390    -0.85600
C578        C  0.08623582  0.38593404  0.56700453     1.02100
O579        O  0.06640548  0.40407831  0.57659721    -0.78400
O580        O  0.10448496  0.43718136  0.62650455    -0.78600
C581        C  0.13525017  0.43116506  0.63226117     1.02100
O582        O  0.17540759  0.52982320  0.62210681    -0.85900
O583        O  0.20965037  0.55005839  0.56971446    -0.82900
C584        C  0.18983497  0.55957290  0.55157200     0.97600
O585        O  0.15844513  0.53090086  0.53728985    -0.83000
O586        O  0.07776167  0.45029020  0.53294057    -0.85600
C587        C  0.05811000  0.46806981  0.54154397     1.02100
O588        O  0.06858171  0.48519361  0.56482785    -0.78400
O589        O  0.11083200  0.51690453  0.61303850    -0.78500
C590        C  0.14544634  0.53734847  0.62605443     1.02000
Cr591      Cr  0.18896336  0.49864239  0.59422520     1.93700
Cr592      Cr  0.13830256  0.46801518  0.54142093     1.93200
Cr593      Cr  0.09110084  0.46184389  0.59382159     1.39100
O594        O  0.13970641  0.47658319  0.57699018    -1.23600
O595        O  0.97083966  0.09613525  0.56176848    -0.85900
O596        O  0.97211303  0.06082585  0.61381875    -0.82900
C597        C  0.00523874  0.09009563  0.62492733     0.97600
O598        O  0.00799461  0.12568643  0.62839952    -0.83000
O599        O  0.99096787  0.19138204  0.62492055    -0.85600
C600        C  0.99247298  0.21058288  0.60263033     1.02100
O601        O  0.96504305  0.19249184  0.58407482    -0.78400
O602        O  0.93494969  0.12783716  0.54801516    -0.78600
C603        C  0.96220631  0.11603312  0.54373130     1.02100
O604        O  0.88194904  0.04953336  0.56275600    -0.85900
O605        O  0.88423682  0.03125835  0.61677623    -0.82900
C606        C  0.89004201  0.03528406  0.64236383     0.97600
O607        O  0.92189395  0.06867208  0.65268766    -0.83000
O608        O  0.90811527  0.13569287  0.65058983    -0.85600
C609        C  0.88382491  0.14670130  0.63936703     1.02100
O610        O  0.88514985  0.15301211  0.61378376    -0.78400
O611        O  0.85447888  0.08647482  0.57834391    -0.78500
C612        C  0.85150987  0.05683454  0.56356390     1.02000
Cr613      Cr  0.92807440  0.06368621  0.59003667     1.93700
Cr614      Cr  0.95551482  0.12916452  0.63638047     1.93200
Cr615      Cr  0.91167933  0.13782338  0.58299003     1.39100
O616        O  0.93219781  0.11111854  0.60329404    -1.23600
O617        O  0.68524437  0.48066345  0.90039379    -0.85900
O618        O  0.70995823  0.46330955  0.94891322    -0.82900
C619        C  0.70995184  0.45349839  0.97361503     0.97600
O620        O  0.68065589  0.45056140  0.98857769    -0.83000
O621        O  0.68665546  0.53169418  0.97628260    -0.85600
C622        C  0.67837537  0.55704612  0.96271324     1.02100
O623        O  0.64142850  0.54369269  0.95277312    -0.78400
O624        O  0.65790792  0.52318753  0.90222183    -0.78600
C625        C  0.68461071  0.51360641  0.89282213     1.02100
O626        O  0.60412364  0.40585583  0.90402714    -0.85900
O627        O  0.62542932  0.38913134  0.95481994    -0.82900
C628        C  0.59437253  0.37992946  0.97093124     0.97600
O629        O  0.59192170  0.40890928  0.98456346    -0.83000
O630        O  0.59783003  0.49025188  0.98934763    -0.85600
C631        C  0.56197289  0.47622332  0.97831226     1.02100
O632        O  0.55838890  0.46569154  0.95332647    -0.78400
O633        O  0.57661952  0.44798551  0.90176161    -0.78500
C634        C  0.57791106  0.41558422  0.89405583     1.02000
Cr635      Cr  0.65446152  0.43714787  0.92848775     1.93700
Cr636      Cr  0.63921213  0.47051940  0.98198220     1.93200
Cr637      Cr  0.61027112  0.49279095  0.92893984     1.39100
O638        O  0.63425466  0.46627716  0.94576698    -1.23600
O639        O  0.84358152  0.84158429  0.96172733    -0.85900
O640        O  0.88006706  0.82632832  0.91617886    -0.82900
C641        C  0.88626386  0.81972143  0.89163766     0.97600
O642        O  0.85817442  0.81312186  0.87370814    -0.83000
O643        O  0.78432557  0.74051569  0.89519977    -0.85600
C644        C  0.75358162  0.72161079  0.91213731     1.02100
O645        O  0.73144592  0.73876689  0.91749026    -0.78400
O646        O  0.78319465  0.78055241  0.96228171    -0.78600
C647        C  0.81745753  0.80771453  0.97386295     1.02100
O648        O  0.82755083  0.89766161  0.93060282    -0.85900
O649        O  0.86748667  0.88664825  0.88603352    -0.82900
C650        C  0.84147369  0.88822614  0.86949891     0.97600
O651        O  0.80774540  0.85398680  0.86280393    -0.83000
O652        O  0.73347935  0.77722698  0.87321854    -0.85600
C653        C  0.71332482  0.79467628  0.88275238     1.02100
O654        O  0.72410068  0.81241318  0.90597554    -0.78400
O655        O  0.77143169  0.85023315  0.95294884    -0.78500
C656        C  0.79926208  0.88838127  0.94857560     1.02000
Cr657      Cr  0.85102597  0.85985062  0.92284691     1.93700
Cr658      Cr  0.79622396  0.79708618  0.87824124     1.93200
Cr659      Cr  0.75556074  0.79687797  0.93297131     1.39100
O660        O  0.80115071  0.81799215  0.91170591    -1.23600
O661        O  0.32754624  0.43691055  0.11943011    -0.85900
O662        O  0.34277360  0.40336044  0.07239372    -0.82900
C663        C  0.30348848  0.38673656  0.06748807     0.97600
O664        O  0.29196730  0.40679366  0.05102602    -0.83000
O665        O  0.29447905  0.48280326  0.03033317    -0.85600
C666        C  0.27043393  0.48683809  0.04714901     1.02100
O667        O  0.27908114  0.48952047  0.07240549    -0.78400
O668        O  0.32171191  0.49470775  0.12088937    -0.78600
C669        C  0.31512355  0.45995864  0.13119631     1.02100
O670        O  0.40906130  0.50827301  0.11519849    -0.85900
O671        O  0.42381085  0.47847266  0.06563886    -0.82900
C672        C  0.41799550  0.46316163  0.04156838     0.97600
O673        O  0.38082476  0.44573545  0.03165116    -0.83000
O674        O  0.38556829  0.52448049  0.02473036    -0.85600
C675        C  0.38680743  0.55832088  0.03354791     1.02100
O676        O  0.35843526  0.55546971  0.04990054    -0.78400
O677        O  0.39902012  0.55775971  0.09720158    -0.78500
C678        C  0.41756100  0.54640102  0.11421383     1.02000
Cr679      Cr  0.37436910  0.45847894  0.09159893     1.93700
Cr680      Cr  0.33850907  0.46548847  0.03663058     1.93200
Cr681      Cr  0.34016444  0.52113514  0.08413064     1.39100
O682        O  0.35107975  0.48207956  0.07119747    -1.23600
O683        O  0.18874389  0.16305643  0.06361771    -0.85900
O684        O  0.23855742  0.20547017  0.10794030    -0.82900
C685        C  0.21702601  0.22081677  0.11847624     0.97600
O686        O  0.18635265  0.19821014  0.13483010    -0.83000
O687        O  0.11564729  0.12217634  0.15559299    -0.85600
C688        C  0.08778689  0.11859375  0.13857713     1.02100
O689        O  0.09261541  0.11354806  0.11349835    -0.78400
O690        O  0.12688414  0.10388958  0.06550871    -0.78600
C691        C  0.15298492  0.13748768  0.05317494     1.02100
O692        O  0.20371459  0.09483628  0.07131252    -0.85900
O693        O  0.25031300  0.13199571  0.11845791    -0.82900
C694        C  0.25943799  0.14731791  0.14238594     0.97600
O695        O  0.23996940  0.16505771  0.15178448    -0.83000
O696        O  0.16881745  0.08385325  0.16119114    -0.85600
C697        C  0.13554228  0.04927843  0.15417182     1.02100
O698        O  0.10846116  0.05069579  0.13846321    -0.78400
O699        O  0.14565440  0.04547548  0.09093477    -0.78500
C700        C  0.17551119  0.05621216  0.07393848     1.02000
Cr701      Cr  0.21724149  0.14716327  0.09231622     1.93700
Cr702      Cr  0.17723568  0.14118800  0.14853217     1.93200
Cr703      Cr  0.12213926  0.08176591  0.10294307     1.39100
O704        O  0.17197693  0.12351568  0.11408340    -1.23600
O705        O  0.86720480  0.50248642  0.39711055    -0.85900
O706        O  0.91017342  0.53264022  0.44649892    -0.82900
C707        C  0.88901322  0.55004143  0.45391406     0.97600
O708        O  0.85560163  0.52875445  0.46846355    -0.83000
O709        O  0.77679005  0.45539279  0.48269639    -0.85600
C710        C  0.75113974  0.45489489  0.46488986     1.02100
O711        O  0.75969521  0.45397566  0.43980720    -0.78400
O712        O  0.80187389  0.44814442  0.39303550    -0.78600
C713        C  0.83345224  0.48088680  0.38327933     1.02100
O714        O  0.87110986  0.42786408  0.40285571    -0.85900
O715        O  0.91144715  0.45436792  0.45387914    -0.82900
C716        C  0.91948039  0.46857299  0.47817900     0.97600
O717        O  0.89786267  0.48386156  0.48807764    -0.83000
O718        O  0.81892813  0.40673937  0.48996586    -0.85600
C719        C  0.78444697  0.37618959  0.48008135     1.02100
O720        O  0.76396901  0.38329871  0.46184356    -0.78400
O721        O  0.80712439  0.38032756  0.41632798    -0.78500
C722        C  0.83916528  0.39096827  0.40119021     1.02000
Cr723      Cr  0.88613640  0.47745768  0.42678812     1.93700
Cr724      Cr  0.83740404  0.46805897  0.47984931     1.93200
Cr725      Cr  0.78728130  0.41968554  0.42901471     1.39100
O726        O  0.83679868  0.45501711  0.44476131    -1.23600
O727        O  0.03575606  0.80711352  0.47662307    -0.85900
O728        O  0.00055952  0.74428898  0.43967079    -0.82900
C729        C  0.97721973  0.72556187  0.41944048     0.97600
O730        O  0.98262595  0.74452602  0.39642123    -0.83000
O731        O  0.95822156  0.80570388  0.39670108    -0.85600
C732        C  0.95783771  0.83932836  0.40226036     1.02100
O733        O  0.98988400  0.86965722  0.41379586    -0.78400
O734        O  0.99640916  0.83527208  0.46404888    -0.78600
C735        C  0.00778734  0.81758693  0.48188670     1.02100
O736        O  0.11308767  0.84728639  0.44359805    -0.85900
O737        O  0.07830448  0.77951260  0.40753984    -0.82900
C738        C  0.08372650  0.79164743  0.38269969     0.97600
O739        O  0.06404081  0.80896670  0.37289599    -0.83000
O740        O  0.04122348  0.87004376  0.37312973    -0.85600
C741        C  0.07180720  0.90386127  0.38386384     1.02100
O742        O  0.07945875  0.90540469  0.40910794    -0.78400
O743        O  0.08619025  0.88414664  0.46098321    -0.78500
C744        C  0.11670335  0.87689413  0.45878539     1.02000
Cr745      Cr  0.05540671  0.79667146  0.44004439     1.93700
Cr746      Cr  0.01308055  0.80827826  0.38743574     1.93200
Cr747      Cr  0.03740099  0.86989672  0.43573972     1.39100
O748        O  0.03503689  0.82439520  0.42090247    -1.23600
O749        O  0.31183320  0.76224472  0.23312554    -0.85900
O750        O  0.35883679  0.77743706  0.28107989    -0.82900
C751        C  0.36838483  0.78172706  0.30621461     0.97600
O752        O  0.34412568  0.78595208  0.32280556    -0.83000
O753        O  0.34063864  0.85705123  0.29839550    -0.85600
C754        C  0.32748941  0.87460769  0.28100652     1.02100
O755        O  0.28798722  0.85558285  0.27512701    -0.78400
O756        O  0.29722478  0.81462842  0.23085801    -0.78600
C757        C  0.31229582  0.79295071  0.22056445     1.02100
O758        O  0.23909078  0.69818972  0.25962648    -0.85900
O759        O  0.28280557  0.71124617  0.30730966    -0.82900
C760        C  0.25302111  0.70819803  0.32241313     0.97600
O761        O  0.25281817  0.74185871  0.32979779    -0.83000
O762        O  0.25435565  0.81835574  0.31925109    -0.85600
C763        C  0.21593956  0.79563698  0.31227867     1.02100
O764        O  0.20821687  0.77748904  0.28913376    -0.78400
O765        O  0.21924520  0.74118176  0.24178278    -0.78500
C766        C  0.21513812  0.70469474  0.24404678     1.02000
Cr767      Cr  0.29737997  0.74046390  0.27109308     1.93700
Cr768      Cr  0.29761633  0.79985203  0.31547489     1.93200
Cr769      Cr  0.25494672  0.79593278  0.26100135     1.39100
O770        O  0.28352130  0.77861003  0.28189698    -1.23600
O771        O  0.49987890  0.11863121  0.28577823    -0.85900
O772        O  0.54310315  0.14532506  0.23849475    -0.82900
C773        C  0.54981477  0.15309361  0.21346406     0.97600
O774        O  0.51997732  0.15023832  0.19904318    -0.83000
O775        O  0.44622513  0.06699516  0.21614644    -0.85600
C776        C  0.41349561  0.04212984  0.23082124     1.02100
O777        O  0.39038636  0.05584855  0.24111835    -0.78400
O778        O  0.42963778  0.08501109  0.29081211    -0.78600
C779        C  0.46611671  0.09060022  0.29713365     1.02100
O780        O  0.49027633  0.19036677  0.28874652    -0.85900
O781        O  0.52222781  0.21465370  0.23652305    -0.82900
C782        C  0.50094285  0.22030282  0.21755553     0.97600
O783        O  0.47156104  0.18895182  0.20371415    -0.83000
O784        O  0.39676180  0.10487896  0.20146734    -0.85600
C785        C  0.37639111  0.12122821  0.21123697     1.02100
O786        O  0.38391284  0.13375543  0.23571748    -0.78400
O787        O  0.42062897  0.15839056  0.28577936    -0.78500
C788        C  0.45501171  0.18488696  0.29696130     1.02000
Cr789      Cr  0.50962139  0.16486305  0.26064311     1.93700
Cr790      Cr  0.45862945  0.12768176  0.20813962     1.93200
Cr791      Cr  0.41006144  0.11022430  0.26171977     1.39100
O792        O  0.45978503  0.13485315  0.24409560    -1.23600
C793        C  0.33929167  0.92418948  0.24183207    -0.20800
C794        C  0.35577376  0.91626832  0.26612337    -0.07400
C795        C  0.39687529  0.94833597  0.27482889     0.13500
C796        C  0.41809893  0.98779875  0.26049965    -0.20900
C797        C  0.39980713  0.99657741  0.23753389    -0.07400
C798        C  0.36013086  0.96352631  0.22793424     0.13500
C799        C  0.33837060  0.97058079  0.20374485    -0.24200
H800        H  0.30858695  0.89985896  0.23404652     0.14700
H801        H  0.44780936  0.01315742  0.26856813     0.14800
C802        C  0.41756855  0.94213885  0.29988874    -0.24200
H803        H  0.30817503  0.94129738  0.19817697     0.05000
H804        H  0.35979003  0.98058790  0.18564238     0.08200
H805        H  0.33046892  0.99563557  0.20883985     0.08200
H806        H  0.42248827  0.91454868  0.29676452     0.08200
H807        H  0.39700248  0.93642840  0.31809323     0.08200
H808        H  0.44916916  0.97050493  0.30415261     0.05000
C809        C  0.15429376  0.79660742  0.37621288    -0.20800
C810        C  0.11500583  0.78752813  0.36487165    -0.07400
C811        C  0.10787180  0.77798180  0.33640846     0.13500
C812        C  0.14083675  0.77984077  0.31998776    -0.20900
C813        C  0.18118631  0.79152154  0.33101111    -0.07400
C814        C  0.18741713  0.79890372  0.35985445     0.13500
C815        C  0.22856430  0.80880298  0.37400243    -0.24200
H816        H  0.15970992  0.80355393  0.39797695     0.14700
H817        H  0.13530808  0.77312619  0.29821411     0.14800
C818        C  0.06528895  0.76491224  0.32321073    -0.24200
H819        H  0.22645381  0.81086280  0.39664552     0.05000
H820        H  0.25495824  0.84000036  0.36698942     0.08200
H821        H  0.23617406  0.78326433  0.36969664     0.08200
H822        H  0.05888126  0.79181553  0.32341660     0.08200
H823        H  0.03961545  0.73735917  0.33440670     0.08200
H824        H  0.06430354  0.75530224  0.30144884     0.05000
C825        C  0.92138358  0.66827959  0.44834707    -0.20800
C826        C  0.94545727  0.67983067  0.42385357    -0.07400
C827        C  0.94691354  0.64780529  0.40841572     0.13500
C828        C  0.92687945  0.60596857  0.41862282    -0.20900
C829        C  0.90453543  0.59449930  0.44380255    -0.07400
C830        C  0.90059049  0.62604032  0.45836667     0.13500
C831        C  0.87696609  0.61612938  0.48517810    -0.24200
H832        H  0.92080968  0.69304634  0.46050155     0.14700
H833        H  0.93002910  0.58216089  0.40708403     0.14800
C834        C  0.97201895  0.65814533  0.38211185    -0.24200
H835        H  0.87825693  0.64485950  0.49427235     0.05000
H836        H  0.89137009  0.60371852  0.50010582     0.08200
H837        H  0.84290915  0.59198631  0.48183872     0.08200
H838        H  0.00609618  0.68165050  0.38613247     0.08200
H839        H  0.95889242  0.67160776  0.36701072     0.08200
H840        H  0.97045397  0.62942899  0.37279942     0.05000
C841        C  0.29918764  0.10983744  0.15359593    -0.20800
C842        C  0.29085770  0.14274325  0.15987920    -0.07400
C843        C  0.31030992  0.16803038  0.18362887     0.13500
C844        C  0.33723889  0.15956752  0.20009625    -0.20900
C845        C  0.34549003  0.12661521  0.19376622    -0.07400
C846        C  0.32579647  0.10118666  0.17015060     0.13500
C847        C  0.33111511  0.06378633  0.16251172    -0.24200
H848        H  0.28397011  0.08994912  0.13580478     0.14700
H849        H  0.35254623  0.17937622  0.21791259     0.14800
C850        C  0.30398807  0.20467833  0.19169933    -0.24200
H851        H  0.31087885  0.04591371  0.14466273     0.05000
H852        H  0.32147123  0.04141403  0.18003473     0.08200
H853        H  0.36468304  0.07473648  0.15677750     0.08200
H854        H  0.27020964  0.19287046  0.19733410     0.08200
H855        H  0.31339393  0.22758090  0.17447152     0.08200
H856        H  0.32378044  0.22224213  0.20977187     0.05000
C857        C  0.21018213  0.27721368  0.09168114    -0.20800
C858        C  0.23145935  0.26643815  0.11185059    -0.07400
C859        C  0.27270192  0.29795482  0.11986149     0.13500
C860        C  0.29353509  0.33667848  0.10560606    -0.20900
C861        C  0.27473008  0.34608313  0.08310554    -0.07400
C862        C  0.23115677  0.31702080  0.07753596     0.13500
C863        C  0.20721182  0.32756895  0.05661455    -0.24200
H864        H  0.17795299  0.25357539  0.08591011     0.14700
H865        H  0.32583640  0.35940275  0.11185811     0.14800
C866        C  0.29560242  0.29011777  0.14307397    -0.24200
H867        H  0.17297287  0.30285918  0.05581049     0.05000
H868        H  0.22138659  0.33052725  0.03597899     0.08200
H869        H  0.20883787  0.35804769  0.06220164     0.08200
H870        H  0.30129083  0.26365914  0.13767127     0.08200
H871        H  0.27595291  0.28179832  0.16197716     0.08200
H872        H  0.32703264  0.31860919  0.14759149     0.05000
C873        C  0.73830007  0.61213303  0.93473823    -0.20800
C874        C  0.70973278  0.60244744  0.95683671    -0.07400
C875        C  0.70033027  0.63387639  0.96552877     0.13500
C876        C  0.71626625  0.67206314  0.95081730    -0.20900
C877        C  0.74222415  0.68094792  0.92733338    -0.07400
C878        C  0.75494160  0.65106895  0.92001036     0.13500
C879        C  0.78400521  0.65886094  0.89601510    -0.24200
H880        H  0.74498109  0.58782675  0.92760395     0.14700
H881        H  0.70725099  0.69491938  0.95764163     0.14800
C882        C  0.67153023  0.62626471  0.98976686    -0.24200
H883        H  0.79014955  0.63204557  0.89290033     0.05000
H884        H  0.81518125  0.68810647  0.89968514     0.08200
H885        H  0.76925176  0.66260711  0.87696809     0.08200
H886        H  0.68460512  0.61850898  0.00813995     0.08200
H887        H  0.63899681  0.59955200  0.98536137     0.08200
H888        H  0.66874214  0.65471343  0.99464319     0.05000
C889        C  0.49569435  0.48943530  0.03515614    -0.20800
C890        C  0.45396993  0.46505714  0.02502871    -0.07400
C891        C  0.44807574  0.44414607  0.99921368     0.13500
C892        C  0.48375656  0.44874674  0.98459218    -0.20900
C893        C  0.52548142  0.47324987  0.99475386    -0.07400
C894        C  0.53126651  0.49376782  0.02068355     0.13500
C895        C  0.57468379  0.52099273  0.03354266    -0.24200
H896        H  0.50071210  0.50564576  0.05467208     0.14700
H897        H  0.47889900  0.43264906  0.96504199     0.14800
C898        C  0.40453622  0.41647295  0.98665085    -0.24200
H899        H  0.57290148  0.53573055  0.05311897     0.05000
H900        H  0.59535679  0.54725497  0.01943813     0.08200
H901        H  0.58948104  0.50127915  0.03834709     0.08200
H902        H  0.38929181  0.43584615  0.98205662     0.08200
H903        H  0.38429701  0.39012801  0.00088475     0.08200
H904        H  0.40626384  0.40182074  0.96701868     0.05000
C905        C  0.97463718  0.44661442  0.48493085    -0.20800
C906        C  0.95486388  0.46887450  0.49484400    -0.07400
C907        C  0.96964514  0.49097568  0.52032166     0.13500
C908        C  0.00309113  0.49002423  0.53467914    -0.20900
C909        C  0.02280547  0.46772305  0.52480018    -0.07400
C910        C  0.00798407  0.44552309  0.49936332     0.13500
C911        C  0.02651065  0.42011400  0.48700035    -0.24200
H912        H  0.96372098  0.42954218  0.46564999     0.14700
H913        H  0.01398308  0.50706828  0.55397023     0.14800
C914        C  0.95106609  0.51625306  0.53281265    -0.24200
H915        H  0.01060757  0.40468035  0.46736662     0.05000
H916        H  0.02224337  0.39442963  0.50131708     0.08200
H917        H  0.06089125  0.44134563  0.48250821     0.08200
H918        H  0.91685971  0.49484709  0.53768923     0.08200
H919        H  0.95474613  0.54163324  0.51841844     0.08200
H920        H  0.96733497  0.53204878  0.55228338     0.05000
C921        C  0.05293305  0.33144146  0.60364010    -0.20800
C922        C  0.07036016  0.34122102  0.57692865    -0.07400
C923        C  0.06856215  0.30786487  0.56098908     0.13500
C924        C  0.04597599  0.26561850  0.57112789    -0.20900
C925        C  0.02575272  0.25573700  0.59708882    -0.07400
C926        C  0.03096088  0.28971637  0.61392715     0.13500
C927        C  0.01151713  0.28362675  0.64209330    -0.24200
H928        H  0.05471210  0.35660278  0.61652508     0.14700
H929        H  0.04229952  0.23974267  0.55811799     0.14800
C930        C  0.08829139  0.31619608  0.53291319    -0.24200
H931        H  0.03721518  0.30166676  0.65736706     0.05000
H932        H  0.99376389  0.25011393  0.64884732     0.08200
H933        H  0.98901241  0.29609686  0.64229472     0.08200
H934        H  0.12314674  0.33861800  0.53452747     0.08200
H935        H  0.07356803  0.33010788  0.51944642     0.08200
H936        H  0.08369995  0.28649531  0.52320670     0.05000
C937        C  0.80951206  0.13167464  0.64596560    -0.20800
C938        C  0.85112921  0.14929222  0.65645726    -0.07400
C939        C  0.85930958  0.16504805  0.68373651     0.13500
C940        C  0.82553657  0.16163969  0.69989057    -0.20900
C941        C  0.78356719  0.14280071  0.68970128    -0.07400
C942        C  0.77563370  0.12789789  0.66216339     0.13500
C943        C  0.73133866  0.10608999  0.64994591    -0.24200
H944        H  0.80308028  0.11912335  0.62521259     0.14700
H945        H  0.83199256  0.17373654  0.72074980     0.14800
C946        C  0.90366316  0.18629299  0.69584185    -0.24200
H947        H  0.73080005  0.09396083  0.62892275     0.05000
H948        H  0.71932388  0.12883616  0.64840636     0.08200
H949        H  0.70954056  0.07851762  0.66289074     0.08200
H950        H  0.92586388  0.21294292  0.68242703     0.08200
H951        H  0.91488312  0.16300116  0.69803044     0.08200
H952        H  0.90467139  0.19953690  0.71657149     0.05000
C953        C  0.66441698  0.76995103  0.84180952    -0.20800
C954        C  0.67710393  0.79340519  0.86651742    -0.07400
C955        C  0.65551735  0.81545347  0.87442361     0.13500
C956        C  0.62365761  0.81455208  0.85717942    -0.20900
C957        C  0.61193464  0.79222701  0.83205316    -0.07400
C958        C  0.63233699  0.76885904  0.82465106     0.13500
C959        C  0.62070107  0.74241195  0.79882088    -0.24200
H960        H  0.67998419  0.75235362  0.83561537     0.14700
H961        H  0.60806574  0.83212431  0.86338068     0.14800
C962        C  0.66577729  0.84058458  0.90078780    -0.24200
H963        H  0.63895413  0.72536777  0.79681351     0.05000
H964        H  0.62796030  0.76315927  0.78052751     0.08200
H965        H  0.58625442  0.71806402  0.79908121     0.08200
H966        H  0.69961041  0.86652688  0.90073851     0.08200
H967        H  0.65977030  0.81923169  0.91861906     0.08200
H968        H  0.64572000  0.85559414  0.90351672     0.05000
C969        C  0.58924459  0.99888348  0.77246564    -0.20800
C970        C  0.61207531  0.00765759  0.74761452    -0.07400
C971        C  0.61473109  0.97441113  0.73465580     0.13500
C972        C  0.59648968  0.93432079  0.74742122    -0.20900
C973        C  0.57499412  0.92575240  0.77297053    -0.07400
C974        C  0.57001909  0.95838677  0.78502907     0.13500
C975        C  0.54660489  0.95157054  0.81170932    -0.24200
H976        H  0.58884134  0.02480811  0.78305069     0.14700
H977        H  0.59992453  0.90963048  0.73725465     0.14800
C978        C  0.63833505  0.98067546  0.70807325    -0.24200
H979        H  0.54740995  0.98101203  0.81886330     0.05000
H980        H  0.56154426  0.94162505  0.82786911     0.08200
H981        H  0.51264363  0.92667974  0.80902808     0.08200
H982        H  0.66525495  0.97461766  0.71134638     0.08200
H983        H  0.65135478  0.01325711  0.69966910     0.08200
H984        H  0.61625295  0.95787891  0.69250464     0.05000
C985        C  0.25630587  0.67715280  0.53506836    -0.20800
C986        C  0.25386368  0.69446208  0.56037593    -0.07400
C987        C  0.22264868  0.66792958  0.57942886     0.13500
C988        C  0.19741662  0.62409004  0.57381494    -0.20900
C989        C  0.20324732  0.60572293  0.54991457    -0.07400
C990        C  0.23100162  0.63321189  0.52946093     0.13500
C991        C  0.23565856  0.61722411  0.50199076    -0.24200
H992        H  0.27990766  0.69761922  0.52017165     0.14700
H993        H  0.17537158  0.60344233  0.58927474     0.14800
C994        C  0.21766163  0.68553742  0.60629177    -0.24200
H995        H  0.26887732  0.62368316  0.49949866     0.05000
H996        H  0.22877247  0.63416706  0.48552561     0.08200
H997        H  0.21306876  0.58272070  0.49932124     0.08200
H998        H  0.21080739  0.71170686  0.60230864     0.08200
H999        H  0.24746785  0.69805194  0.61857175     0.08200
H1000       H  0.19097090  0.66085558  0.61858904     0.05000
C1001       C  0.48753872  0.89507976  0.66425266    -0.20800
C1002       C  0.48634470  0.87033000  0.64177423    -0.07400
C1003       C  0.50554384  0.84474937  0.64424676     0.13500
C1004       C  0.52009446  0.84004758  0.67004471    -0.20900
C1005       C  0.51396955  0.85880229  0.69350887    -0.07400
C1006       C  0.50037989  0.88902065  0.69030618     0.13500
C1007       C  0.49651029  0.91329066  0.71416572    -0.24200
H1008       H  0.47295796  0.91486509  0.66241839     0.14700
H1009       H  0.53124438  0.81743916  0.67237417     0.14800
C1010       C  0.50751298  0.81972635  0.62013266    -0.24200
H1011       H  0.51612942  0.94799795  0.71017943     0.05000
H1012       H  0.50775922  0.90664576  0.73372447     0.08200
H1013       H  0.46265953  0.90482115  0.71666820     0.08200
H1014       H  0.52607537  0.84199946  0.60337889     0.08200
H1015       H  0.47496019  0.79691357  0.61257115     0.08200
H1016       H  0.52336937  0.80120034  0.62563761     0.05000
C1017       C  0.05986871  0.03254979  0.65547640    -0.20800
C1018       C  0.10077804  0.05536591  0.64419801    -0.07400
C1019       C  0.11249472  0.09416757  0.63051111     0.13500
C1020       C  0.08172635  0.10680282  0.62597444    -0.20900
C1021       C  0.03930580  0.08113804  0.63460370    -0.07400
C1022       C  0.02919900  0.04493555  0.65092760     0.13500
C1023       C  0.98590617  0.01897744  0.66357746    -0.24200
H1024       H  0.05063509  0.00268829  0.66582828     0.14700
H1025       H  0.09012253  0.13522929  0.61413718     0.14800
C1026       C  0.15693281  0.12104839  0.61949085    -0.24200
H1027       H  0.98421876  0.99334487  0.67691885     0.05000
H1028       H  0.96117453  0.00374274  0.64739347     0.08200
H1029       H  0.97924232  0.04021724  0.67644918     0.08200
H1030       H  0.16409805  0.10258442  0.60449054     0.08200
H1031       H  0.18021675  0.13100119  0.63666997     0.08200
H1032       H  0.16097474  0.15010264  0.60907289     0.05000
C1033       C  0.25230225  0.87076870  0.60814977    -0.20800
C1034       C  0.27967505  0.88643896  0.58526828    -0.07400
C1035       C  0.28387056  0.92252054  0.57166963     0.13500
C1036       C  0.26468433  0.94457592  0.58288042    -0.20900
C1037       C  0.24094336  0.93172986  0.60756613    -0.07400
C1038       C  0.23323755  0.89308923  0.61966760     0.13500
C1039       C  0.20722497  0.87651099  0.64542705    -0.24200
H1040       H  0.24737437  0.84177033  0.61775975     0.14700
H1041       H  0.26978449  0.97320413  0.57259527     0.14800
C1042       C  0.31046428  0.93911980  0.54610923    -0.24200
H1043       H  0.20574898  0.84672007  0.65263973     0.05000
H1044       H  0.17408353  0.86950761  0.64150113     0.08200
H1045       H  0.22175181  0.90058948  0.66204590     0.08200
H1046       H  0.29723660  0.91429357  0.52987338     0.08200
H1047       H  0.34377314  0.94739371  0.55063382     0.08200
H1048       H  0.31086385  0.96801004  0.53807520     0.05000
C1049       C  0.19412586  0.96421142  0.50323207    -0.20800
C1050       C  0.18332557  0.94156407  0.52801322    -0.07400
C1051       C  0.16295002  0.89668561  0.52753860     0.13500
C1052       C  0.14824813  0.87539217  0.50246549    -0.20900
C1053       C  0.15194984  0.89810634  0.47836472    -0.07400
C1054       C  0.17756269  0.94282317  0.47831365     0.13500
C1055       C  0.18410742  0.96796300  0.45241121    -0.24200
H1056       H  0.21035567  0.99868888  0.50368354     0.14700
H1057       H  0.12866421  0.84095817  0.50245286     0.14800
C1058       C  0.15318667  0.87050780  0.55334676    -0.24200
H1059       H  0.20528559  0.00263273  0.45594826     0.05000
H1060       H  0.15305515  0.96289391  0.44457068     0.08200
H1061       H  0.19903228  0.95755750  0.43659962     0.08200
H1062       H  0.11808220  0.85050386  0.55582268     0.08200
H1063       H  0.16646832  0.89043956  0.57198867     0.08200
H1064       H  0.16732327  0.84952251  0.55189703     0.05000
C1065       C  0.58433472  0.19632762  0.69207153    -0.20800
C1066       C  0.57133536  0.16844753  0.71457050    -0.07400
C1067       C  0.53095873  0.15524491  0.72623390     0.13500
C1068       C  0.50685784  0.17396104  0.71713276    -0.20900
C1069       C  0.52322238  0.20700335  0.69754227    -0.07400
C1070       C  0.56075174  0.21555007  0.68340553     0.13500
C1071       C  0.57762154  0.24646958  0.65990332    -0.24200
H1072       H  0.61461535  0.20543244  0.68232632     0.14700
H1073       H  0.47767704  0.16651498  0.72779329     0.14800
C1074       C  0.51471092  0.12353422  0.74936145    -0.24200
H1075       H  0.58037041  0.23008343  0.64142452     0.05000
H1076       H  0.60971903  0.27335266  0.66512866     0.08200
H1077       H  0.55611722  0.25907994  0.65466379     0.08200
H1078       H  0.53721241  0.13600004  0.76698187     0.08200
H1079       H  0.51197155  0.09311498  0.74235539     0.08200
H1080       H  0.48282961  0.11691457  0.75650631     0.05000
C1081       C  0.30111273  0.09375039  0.68853136    -0.20800
C1082       C  0.28762655  0.10537627  0.66442007    -0.07400
C1083       C  0.30637148  0.14923407  0.65807077     0.13500
C1084       C  0.33743409  0.17952713  0.67571724    -0.20900
C1085       C  0.35135104  0.16808901  0.69969145    -0.07400
C1086       C  0.33269430  0.12427646  0.70609310     0.13500
C1087       C  0.34606816  0.10914180  0.73103019    -0.24200
H1088       H  0.28718367  0.06032489  0.69361344     0.14700
H1089       H  0.35119220  0.21284897  0.67041453     0.14800
C1090       C  0.29402799  0.16501947  0.63290070    -0.24200
H1091       H  0.32852368  0.07386425  0.73260588     0.05000
H1092       H  0.33934879  0.12187979  0.74991817     0.08200
H1093       H  0.38065908  0.11988345  0.72989964     0.08200
H1094       H  0.25934201  0.15391416  0.63326448     0.08200
H1095       H  0.30215789  0.15336305  0.61406954     0.08200
H1096       H  0.31119048  0.20033849  0.63177939     0.05000
C1097       C  0.53899298  0.38154691  0.82168304    -0.20800
C1098       C  0.50737525  0.33904905  0.82558198    -0.07400
C1099       C  0.49548320  0.32271303  0.85237274     0.13500
C1100       C  0.51720041  0.34904806  0.87487803    -0.20900
C1101       C  0.55088236  0.39073516  0.87083750    -0.07400
C1102       C  0.56095131  0.40765699  0.84401906     0.13500
C1103       C  0.59641833  0.45255100  0.83881602    -0.24200
H1104       H  0.54806600  0.39363633  0.80095699     0.14700
H1105       H  0.50862454  0.33673809  0.89551374     0.14800
C1106       C  0.46157782  0.27705982  0.85703125    -0.24200
H1107       H  0.60039564  0.46038025  0.81657834     0.05000
H1108       H  0.62703574  0.45654445  0.84672241     0.08200
H1109       H  0.58932279  0.47549253  0.84930266     0.08200
H1110       H  0.47132054  0.25542407  0.84743436     0.08200
H1111       H  0.43101361  0.27115359  0.84774393     0.08200
H1112       H  0.45614049  0.26935471  0.87924222     0.05000
C1113       C  0.34682620  0.60159454  0.79835852    -0.20800
C1114       C  0.36541883  0.57622843  0.79389043    -0.07400
C1115       C  0.41005000  0.59471804  0.79797686     0.13500
C1116       C  0.43489571  0.63879194  0.80444819    -0.20900
C1117       C  0.41597786  0.66451631  0.80713313    -0.07400
C1118       C  0.37084945  0.64461124  0.80500814     0.13500
C1119       C  0.34641669  0.66813223  0.80759101    -0.24200
H1120       H  0.31268766  0.58809987  0.79562491     0.14700
H1121       H  0.46938317  0.65379997  0.80514936     0.14800
C1122       C  0.43181902  0.56903314  0.79372231    -0.24200
H1123       H  0.32872206  0.66500898  0.78824134     0.05000
H1124       H  0.36724054  0.70225795  0.81155987     0.08200
H1125       H  0.32322204  0.65446686  0.82471860     0.08200
H1126       H  0.42572621  0.55601688  0.77251484     0.08200
H1127       H  0.41945387  0.54240105  0.80866609     0.08200
H1128       H  0.46688407  0.58866091  0.79672288     0.05000
C1129       C  0.41054718  0.38121183  0.74062779    -0.20800
C1130       C  0.40110401  0.34259765  0.75332853    -0.07400
C1131       C  0.37392459  0.32985156  0.77711334     0.13500
C1132       C  0.35520643  0.35382677  0.78564073    -0.20900
C1133       C  0.36151013  0.38967270  0.77134326    -0.07400
C1134       C  0.39098311  0.40469674  0.74932511     0.13500
C1135       C  0.40170422  0.44574037  0.73510435    -0.24200
H1136       H  0.43198856  0.39229201  0.72322728     0.14700
H1137       H  0.33234481  0.34237847  0.80232105     0.14800
C1138       C  0.36240977  0.29039080  0.79382858    -0.24200
H1139       H  0.42450670  0.45286318  0.71798078     0.05000
H1140       H  0.41636201  0.47234235  0.75010656     0.08200
H1141       H  0.37250392  0.44418924  0.72669708     0.08200
H1142       H  0.39137580  0.29217538  0.80260831     0.08200
H1143       H  0.34427337  0.26124357  0.78123932     0.08200
H1144       H  0.34169152  0.28692927  0.81157747     0.05000
C1145       C  0.15964105  0.36804815  0.68370040    -0.20800
C1146       C  0.14880079  0.38152387  0.70780823    -0.07400
C1147       C  0.12179455  0.39906788  0.70607774     0.13500
C1148       C  0.11290774  0.41002581  0.68026760    -0.20900
C1149       C  0.13210922  0.40527309  0.65652290    -0.07400
C1150       C  0.15300797  0.38110371  0.65792899     0.13500
C1151       C  0.17062020  0.37113799  0.63274857    -0.24200
H1152       H  0.17989293  0.35392715  0.68515204     0.14700
H1153       H  0.09530506  0.42696778  0.67911948     0.14800
C1154       C  0.10635987  0.41037090  0.73167754    -0.24200
H1155       H  0.18293108  0.34925307  0.63757967     0.05000
H1156       H  0.19759565  0.40061832  0.62416618     0.08200
H1157       H  0.14510340  0.35552211  0.61703775     0.08200
H1158       H  0.13390779  0.43440112  0.74379804     0.08200
H1159       H  0.08786684  0.38136420  0.74433372     0.08200
H1160       H  0.08542722  0.42382667  0.72679564     0.05000
C1161       C  0.75284570  0.38721376  0.00702041    -0.20800
C1162       C  0.79144789  0.40211634  0.99310302    -0.07400
C1163       C  0.80735554  0.44006084  0.97753169     0.13500
C1164       C  0.78134445  0.45816934  0.97289112    -0.20900
C1165       C  0.74030970  0.44012173  0.98417516    -0.07400
C1166       C  0.72716105  0.40573891  0.00299932     0.13500
C1167       C  0.68432537  0.38522189  0.01690955    -0.24200
H1168       H  0.74063432  0.35808938  0.01884874     0.14700
H1169       H  0.79241129  0.48531143  0.95927004     0.14800
C1170       C  0.85057222  0.46085417  0.96418150    -0.24200
H1171       H  0.67934266  0.35838569  0.03039012     0.05000
H1172       H  0.65880007  0.37221892  0.00112356     0.08200
H1173       H  0.68163179  0.40886417  0.02996087     0.08200
H1174       H  0.86820427  0.44387511  0.96858982     0.08200
H1175       H  0.87000406  0.49387829  0.97204570     0.08200
H1176       H  0.84710004  0.46224728  0.94163364     0.05000
C1177       C  0.82055717  0.30024923  0.83978785    -0.20800
C1178       C  0.82595536  0.27919947  0.86220783    -0.07400
C1179       C  0.81629013  0.23651081  0.85962871     0.13500
C1180       C  0.79824295  0.21486089  0.83499227    -0.20900
C1181       C  0.78876626  0.23480427  0.81360080    -0.07400
C1182       C  0.80158340  0.27838055  0.81552518     0.13500
C1183       C  0.79338211  0.30129998  0.79256319    -0.24200
H1184       H  0.82829411  0.33313281  0.84204343     0.14700
H1185       H  0.78774007  0.18117896  0.83352583     0.14800
C1186       C  0.82142996  0.21213154  0.88299404    -0.24200
H1187       H  0.80590019  0.33544976  0.79747818     0.05000
H1188       H  0.75861837  0.28660067  0.78866170     0.08200
H1189       H  0.80948543  0.29958598  0.77368941     0.08200
H1190       H  0.78994160  0.18429190  0.88819069     0.08200
H1191       H  0.83445660  0.23165019  0.90178660     0.08200
H1192       H  0.84348308  0.20064580  0.87679509     0.05000
C1193       C  0.15032506  0.29654688  0.87215317    -0.20800
C1194       C  0.11633177  0.26071954  0.85965009    -0.07400
C1195       C  0.11812149  0.25527315  0.83091911     0.13500
C1196       C  0.15235380  0.28658079  0.81547858    -0.20900
C1197       C  0.18518624  0.32376666  0.82765770    -0.07400
C1198       C  0.18439944  0.32817791  0.85670204     0.13500
C1199       C  0.21930010  0.36578079  0.87189990    -0.24200
H1200       H  0.14958181  0.30051431  0.89416506     0.14700
H1201       H  0.15269477  0.28244752  0.79346663     0.14800
C1202       C  0.08458169  0.21605284  0.81629653    -0.24200
H1203       H  0.21501885  0.36211064  0.89450399     0.05000
H1204       H  0.21910578  0.39534853  0.86625014     0.08200
H1205       H  0.25075988  0.36902029  0.86699793     0.08200
H1206       H  0.05332044  0.21480202  0.81703164     0.08200
H1207       H  0.08192843  0.18713454  0.82606064     0.08200
H1208       H  0.09255710  0.21577265  0.79432184     0.05000
C1209       C  0.90824689  0.00326958  0.85222153    -0.20800
C1210       C  0.89465795  0.02054498  0.87319957    -0.07400
C1211       C  0.85490550  0.99340370  0.88597212     0.13500
C1212       C  0.83243244  0.94964282  0.87925322    -0.20900
C1213       C  0.85025519  0.93154661  0.86200670    -0.07400
C1214       C  0.88753171  0.95910630  0.84728291     0.13500
C1215       C  0.90713654  0.94152504  0.82776898    -0.24200
H1216       H  0.93763947  0.02376531  0.84145401     0.14700
H1217       H  0.80349143  0.92860984  0.89034482     0.14800
C1218       C  0.83676581  0.00956917  0.90760109    -0.24200
H1219       H  0.93602444  0.96724718  0.81764641     0.05000
H1220       H  0.88361425  0.92244967  0.81158405     0.08200
H1221       H  0.91668751  0.92099800  0.83903345     0.08200
H1222       H  0.83446957  0.03697875  0.89945672     0.08200
H1223       H  0.85722289  0.01937310  0.92623396     0.08200
H1224       H  0.80431681  0.98460897  0.91398800     0.05000
C1225       C  0.90815880  0.20019061  0.92648221    -0.20800
C1226       C  0.93748084  0.21876282  0.90478762    -0.07400
C1227       C  0.94975050  0.26067025  0.89693065     0.13500
C1228       C  0.93630111  0.28438542  0.91241941    -0.20900
C1229       C  0.90983337  0.26747275  0.93570158    -0.07400
C1230       C  0.89349382  0.22373382  0.94170015     0.13500
C1231       C  0.86155147  0.20197115  0.96427457    -0.24200
H1232       H  0.89892373  0.16803834  0.93272011     0.14700
H1233       H  0.94746810  0.31700178  0.90630871     0.14800
C1234       C  0.97854945  0.28100455  0.87257728    -0.24200
H1235       H  0.85183067  0.16778306  0.96588430     0.05000
H1236       H  0.83233051  0.20375852  0.95991731     0.08200
H1237       H  0.87543941  0.21744833  0.98427477     0.08200
H1238       H  0.96344158  0.26154183  0.85394071     0.08200
H1239       H  0.00994268  0.28321285  0.87603206     0.08200
H1240       H  0.98435050  0.31367609  0.86869764     0.05000
C1241       C  0.11285969  0.10645424  0.01100524    -0.20800
C1242       C  0.13988611  0.14387288  0.02564850    -0.07400
C1243       C  0.14695080  0.18335545  0.01536231     0.13500
C1244       C  0.12288244  0.18345355  0.99281930    -0.20900
C1245       C  0.09161796  0.14539771  0.98056853    -0.07400
C1246       C  0.08764959  0.10627320  0.98922668     0.13500
C1247       C  0.05588806  0.06376934  0.97689056    -0.24200
H1248       H  0.10888731  0.07629018  0.01809113     0.14700
H1249       H  0.12691405  0.21370072  0.98590052     0.14800
C1250       C  0.17687477  0.22587151  0.02802665    -0.24200
H1251       H  0.06016462  0.03746335  0.98498267     0.05000
H1252       H  0.05969991  0.06433037  0.95433857     0.08200
H1253       H  0.02287451  0.05594842  0.98199746     0.08200
H1254       H  0.19620243  0.22474103  0.04512557     0.08200
H1255       H  0.15780171  0.23996648  0.03560085     0.08200
H1256       H  0.19947983  0.24725252  0.01220856     0.05000
C1257       C  0.44257557  0.79298425  0.30280714    -0.20800
C1258       C  0.40326599  0.77455931  0.31651054    -0.07400
C1259       C  0.39580783  0.74455366  0.33763791     0.13500
C1260       C  0.42240006  0.72668530  0.33977185    -0.20900
C1261       C  0.45816041  0.74064877  0.32298533    -0.07400
C1262       C  0.47131616  0.77791272  0.30727828     0.13500
C1263       C  0.51555598  0.80143655  0.29539780    -0.24200
H1264       H  0.45037192  0.81844257  0.28824853     0.14700
H1265       H  0.41290420  0.69894433  0.35261468     0.14800
C1266       C  0.35817588  0.72844224  0.35652519    -0.24200
H1267       H  0.52051185  0.82925858  0.28298377     0.05000
H1268       H  0.52195536  0.78040833  0.28235203     0.08200
H1269       H  0.53922160  0.81320378  0.31240888     0.08200
H1270       H  0.32859084  0.71164870  0.34438500     0.08200
H1271       H  0.35903753  0.75544931  0.36782915     0.08200
H1272       H  0.35792702  0.70570548  0.37193704     0.05000
C1273       C  0.46429553  0.63407908  0.16725286    -0.20800
C1274       C  0.48107238  0.61658667  0.18582334    -0.07400
C1275       C  0.48471651  0.58119101  0.17793841     0.13500
C1276       C  0.46832876  0.56216157  0.15244255    -0.20900
C1277       C  0.44639473  0.57629379  0.13534459    -0.07400
C1278       C  0.44615463  0.61415364  0.14233645     0.13500
C1279       C  0.42450203  0.63253665  0.12505831    -0.24200
H1280       H  0.46293188  0.66226322  0.17312119     0.14700
H1281       H  0.46946473  0.53374407  0.14697837     0.14800
C1282       C  0.50201912  0.56095967  0.19714456    -0.24200
H1283       H  0.42901037  0.66290867  0.13365483     0.05000
H1284       H  0.38960318  0.61000505  0.12417242     0.08200
H1285       H  0.43808710  0.63934562  0.10408295     0.08200
H1286       H  0.48212379  0.55048028  0.21592514     0.08200
H1287       H  0.53566468  0.58400875  0.20255519     0.08200
H1288       H  0.50119458  0.53261314  0.18780189     0.05000
C1289       C  0.53912623  0.28926859  0.19162503    -0.20800
C1290       C  0.51221857  0.26570928  0.21330570    -0.07400
C1291       C  0.50842508  0.28864647  0.23561227     0.13500
C1292       C  0.53683302  0.33263857  0.23838610    -0.20900
C1293       C  0.56800599  0.35553201  0.21855404    -0.07400
C1294       C  0.56670089  0.33389010  0.19381417     0.13500
C1295       C  0.59643828  0.35678114  0.17046146    -0.24200
H1296       H  0.54114489  0.27240745  0.17387616     0.14700
H1297       H  0.53563974  0.34878769  0.25680951     0.14800
C1298       C  0.47556017  0.26702787  0.25753889    -0.24200
H1299       H  0.59215601  0.33502716  0.15315763     0.05000
H1300       H  0.62968781  0.37101148  0.17787960     0.08200
H1301       H  0.59054088  0.38214725  0.16257955     0.08200
H1302       H  0.49197899  0.27033710  0.27741110     0.08200
H1303       H  0.45378372  0.23287334  0.25290954     0.08200
H1304       H  0.45571914  0.28243763  0.25921108     0.05000
C1305       C  0.62875997  0.57906628  0.27634086    -0.20800
C1306       C  0.61061939  0.54865072  0.25503435    -0.07400
C1307       C  0.56705833  0.53298944  0.24845796     0.13500
C1308       C  0.54479345  0.55136622  0.26119220    -0.20900
C1309       C  0.56486824  0.58464567  0.28041399    -0.07400
C1310       C  0.60647855  0.59664026  0.28917386     0.13500
C1311       C  0.62784449  0.62890571  0.31185704    -0.24200
H1312       H  0.66121132  0.58994526  0.28300823     0.14700
H1313       H  0.51246645  0.54156753  0.25493606     0.14800
C1314       C  0.54441579  0.49834675  0.22748212    -0.24200
H1315       H  0.65988167  0.63361754  0.31696505     0.05000
H1316       H  0.60797249  0.61766809  0.33066737     0.08200
H1317       H  0.63195760  0.66023237  0.30575930     0.08200
H1318       H  0.54471475  0.46918550  0.23411912     0.08200
H1319       H  0.56044985  0.50899481  0.20728417     0.08200
H1320       H  0.51056290  0.48991945  0.22495341     0.05000
C1321       C  0.81542498  0.53024454  0.32029724    -0.20800
C1322       C  0.79211235  0.49319508  0.30417950    -0.07400
C1323       C  0.79307223  0.45582769  0.31156831     0.13500
C1324       C  0.81282156  0.45541047  0.33623482    -0.20900
C1325       C  0.82971134  0.49028007  0.35430148    -0.07400
C1326       C  0.83359375  0.52899997  0.34556064     0.13500
C1327       C  0.85422816  0.56798103  0.36347615    -0.24200
H1328       H  0.81625032  0.55946817  0.31434833     0.14700
H1329       H  0.81113357  0.42601479  0.34288193     0.14800
C1330       C  0.76982858  0.41481392  0.29551932    -0.24200
H1331       H  0.85326487  0.59530032  0.35387946     0.05000
H1332       H  0.88812703  0.57733523  0.36671165     0.08200
H1333       H  0.83769087  0.56130133  0.38357153     0.08200
H1334       H  0.78037066  0.42029129  0.27386813     0.08200
H1335       H  0.73488875  0.40226978  0.29644487     0.08200
H1336       H  0.77601285  0.38982488  0.30384005     0.05000
C1337       C  0.81274962  0.66190953  0.16206417    -0.20800
C1338       C  0.85518137  0.67204360  0.16672391    -0.07400
C1339       C  0.86316331  0.64814397  0.18661993     0.13500
C1340       C  0.82881465  0.61572136  0.20136614    -0.20900
C1341       C  0.78640240  0.60575951  0.19672725    -0.07400
C1342       C  0.77843362  0.62931814  0.17660455     0.13500
C1343       C  0.73408610  0.62138287  0.17063263    -0.24200
H1344       H  0.80626383  0.67996389  0.14696457     0.14700
H1345       H  0.83515220  0.59756116  0.21647273     0.14800
C1346       C  0.90744872  0.65557859  0.19210399    -0.24200
H1347       H  0.73432440  0.64445120  0.15550412     0.05000
H1348       H  0.71934691  0.62458301  0.18979028     0.08200
H1349       H  0.71417620  0.58907650  0.16180782     0.08200
H1350       H  0.92795124  0.68799854  0.20061328     0.08200
H1351       H  0.92147580  0.65181357  0.17278459     0.08200
H1352       H  0.90726009  0.63256221  0.20726016     0.05000
C1353       C  0.09045302  0.98082849  0.17800355    -0.20800
C1354       C  0.12675236  0.00584497  0.16203783    -0.07400
C1355       C  0.14244866  0.98446217  0.14555343     0.13500
C1356       C  0.11666267  0.94030089  0.14058378    -0.20900
C1357       C  0.07713407  0.91607992  0.15371383    -0.07400
C1358       C  0.06694365  0.93607134  0.17522878     0.13500
C1359       C  0.03101471  0.91099535  0.19500569    -0.24200
H1360       H  0.07886404  0.99660618  0.19148970     0.14700
H1361       H  0.12681401  0.92511841  0.12557942     0.14800
C1362       C  0.18570089  0.00767355  0.13233443    -0.24200
H1363       H  0.02755467  0.93193299  0.21018392     0.05000
H1364       H  0.03758629  0.88841005  0.20649584     0.08200
H1365       H  0.00032210  0.89279306  0.18406607     0.08200
H1366       H  0.20217796  0.04240633  0.13633619     0.08200
H1367       H  0.18272780  0.00204497  0.10990597     0.08200
H1368       H  0.20594038  0.99522409  0.14070691     0.05000
C1369       C  0.85162730  0.83932576  0.01817549    -0.20800
C1370       C  0.82832042  0.80224317  0.00226690    -0.07400
C1371       C  0.82067904  0.76281646  0.01278544     0.13500
C1372       C  0.84051753  0.76219580  0.03737569    -0.20900
C1373       C  0.86816759  0.80006115  0.05144287    -0.07400
C1374       C  0.87177234  0.83880673  0.04263523     0.13500
C1375       C  0.89693422  0.87963745  0.05862641    -0.24200
H1376       H  0.85587524  0.86939575  0.01070386     0.14700
H1377       H  0.83698988  0.73224353  0.04444303     0.14800
C1378       C  0.79366774  0.72173352  0.99766732    -0.24200
H1379       H  0.89288134  0.90576136  0.04993510     0.05000
H1380       H  0.93149162  0.89034652  0.05810431     0.08200
H1381       H  0.88578097  0.87469254  0.08023197     0.08200
H1382       H  0.79236402  0.69410870  0.00847106     0.08200
H1383       H  0.80673883  0.72340309  0.97681497     0.08200
H1384       H  0.76063297  0.71603910  0.99625289     0.05000
C1385       C  0.21163592  0.53848901  0.01472386    -0.20800
C1386       C  0.17474928  0.51976211  0.03070687    -0.07400
C1387       C  0.16269048  0.47966205  0.04251650     0.13500
C1388       C  0.19399736  0.46818199  0.04730381    -0.20900
C1389       C  0.23534108  0.49338631  0.03699912    -0.07400
C1390       C  0.24290124  0.52645794  0.01818717     0.13500
C1391       C  0.28490869  0.55164123  0.00362338    -0.24200
H1392       H  0.21817132  0.56550887  0.00208394     0.14700
H1393       H  0.18645678  0.44019506  0.05940940     0.14800
C1394       C  0.11695103  0.44996185  0.05032077    -0.24200
H1395       H  0.28468073  0.57539306  0.98932087     0.05000
H1396       H  0.29187556  0.53006848  0.99133663     0.08200
H1397       H  0.31060385  0.56913162  0.01886753     0.08200
H1398       H  0.09678988  0.44105414  0.03155450     0.08200
H1399       H  0.10515556  0.46526964  0.06479776     0.08200
H1400       H  0.11289274  0.42028446  0.05979840     0.05000
C1401       C  0.03636744  0.67337375  0.07291123    -0.20800
C1402       C  0.07502971  0.68407750  0.08551162    -0.07400
C1403       C  0.08965924  0.71416205  0.10726068     0.13500
C1404       C  0.06416199  0.73113183  0.11665696    -0.20900
C1405       C  0.02333406  0.71763771  0.10559917    -0.07400
C1406       C  0.00989949  0.68856436  0.08275717     0.13500
C1407       C  0.96714079  0.67122667  0.06862337    -0.24200
H1408       H  0.02492045  0.64963877  0.05671376     0.14700
H1409       H  0.07559952  0.75382286  0.13342108     0.14800
C1410       C  0.13217291  0.72801967  0.12077150    -0.24200
H1411       H  0.96298639  0.64920439  0.05151346     0.05000
H1412       H  0.96418212  0.69751425  0.05948114     0.08200
H1413       H  0.94088832  0.65276588  0.08332602     0.08200
H1414       H  0.15780694  0.74182854  0.10510489     0.08200
H1415       H  0.13233461  0.70053326  0.13064978     0.08200
H1416       H  0.13953541  0.75248180  0.13684263     0.05000
C1417       C  0.95053295  0.44234256  0.02171406    -0.20800
C1418       C  0.95387519  0.44890244  0.99312786    -0.07400
C1419       C  0.98255393  0.48996848  0.98289833     0.13500
C1420       C  0.00956459  0.52197267  0.00137813    -0.20900
C1421       C  0.00839381  0.51424065  0.02976703    -0.07400
C1422       C  0.97748154  0.47424096  0.04012080     0.13500
C1423       C  0.97468759  0.46366736  0.07022621    -0.24200
H1424       H  0.92761842  0.41135477  0.02977666     0.14700
H1425       H  0.03308924  0.55286851  0.99349991     0.14800
C1426       C  0.98636380  0.50002196  0.95266002    -0.24200
H1427       H  0.94861454  0.43077777  0.07457247     0.05000
H1428       H  0.96830605  0.48586301  0.08227580     0.08200
H1429       H  0.00499322  0.46592215  0.07707632     0.08200
H1430       H  0.95558889  0.49558266  0.94469886     0.08200
H1431       H  0.99516176  0.47890506  0.94139006     0.08200
H1432       H  0.01125633  0.53348086  0.94846805     0.05000
C1433       C  0.14046068  0.65397935  0.18503109    -0.20800
C1434       C  0.15972524  0.63251256  0.17329826    -0.07400
C1435       C  0.18748197  0.62432632  0.18920266     0.13500
C1436       C  0.20040396  0.64348697  0.21501508    -0.20900
C1437       C  0.18649171  0.67093109  0.22488373    -0.07400
C1438       C  0.15312386  0.67286845  0.21096228     0.13500
C1439       C  0.13077967  0.69492271  0.22274556    -0.24200
H1440       H  0.11643032  0.65717115  0.17359310     0.14700
H1441       H  0.22461894  0.64026438  0.22618301     0.14800
C1442       C  0.20377224  0.59582695  0.17894119    -0.24200
H1443       H  0.09582016  0.67247766  0.22290870     0.05000
H1444       H  0.13747529  0.72289621  0.20990454     0.08200
H1445       H  0.14047700  0.70541042  0.24425660     0.08200
H1446       H  0.22318642  0.60951043  0.16017263     0.08200
H1447       H  0.17638322  0.56376191  0.17425020     0.08200
H1448       H  0.22412220  0.59194396  0.19448491     0.05000
C1449       C  0.85753575  0.84832746  0.40361596    -0.20800
C1450       C  0.86546500  0.87664622  0.38162962    -0.07400
C1451       C  0.89958880  0.88569522  0.36372147     0.13500
C1452       C  0.92707104  0.86965728  0.36970135    -0.20900
C1453       C  0.92191230  0.84549346  0.39339502    -0.07400
C1454       C  0.88546778  0.83282172  0.40977058     0.13500
C1455       C  0.87743633  0.80489641  0.43449511    -0.24200
H1456       H  0.83158140  0.84149238  0.41757499     0.14700
H1457       H  0.95405741  0.87782722  0.35649339     0.14800
C1458       C  0.90940338  0.91440571  0.33924322    -0.24200
H1459       H  0.84749360  0.79781260  0.44514573     0.05000
H1460       H  0.90432209  0.82089823  0.44925929     0.08200
H1461       H  0.87460151  0.77422548  0.42799329     0.08200
H1462       H  0.94125616  0.94309650  0.34192921     0.08200
H1463       H  0.88552329  0.92474502  0.33621774     0.08200
H1464       H  0.90966493  0.89728034  0.32041549     0.05000
C1465       C  0.67811013  0.84158817  0.32862124    -0.20800
C1466       C  0.68813757  0.83149828  0.35451738    -0.07400
C1467       C  0.66821939  0.78801110  0.36233196     0.13500
C1468       C  0.63845748  0.75664728  0.34457685    -0.20900
C1469       C  0.62735422  0.76680675  0.31909978    -0.07400
C1470       C  0.64817363  0.81012684  0.31087486     0.13500
C1471       C  0.63880261  0.82403026  0.28378694    -0.24200
H1472       H  0.69341559  0.87460002  0.32224647     0.14700
H1473       H  0.62328284  0.72364075  0.35096049     0.14800
C1474       C  0.67764849  0.77375628  0.38928351    -0.24200
H1475       H  0.65771780  0.85910528  0.28107862     0.05000
H1476       H  0.60456767  0.81466874  0.28260915     0.08200
H1477       H  0.64701906  0.80932493  0.26660884     0.08200
H1478       H  0.66818801  0.78709634  0.40663430     0.08200
H1479       H  0.71216162  0.78421921  0.39068696     0.08200
H1480       H  0.65972547  0.73855595  0.39148033     0.05000
C1481       C  0.77833457  0.97159687  0.51575453    -0.20800
C1482       C  0.78797600  0.99630891  0.49191323    -0.07400
C1483       C  0.80670892  0.04093962  0.49412053     0.13500
C1484       C  0.82041220  0.06015565  0.51991428    -0.20900
C1485       C  0.81748713  0.03578303  0.54303221    -0.07400
C1486       C  0.79385661  0.99093314  0.54131841     0.13500
C1487       C  0.78704912  0.96353334  0.56610859    -0.24200
H1488       H  0.76335158  0.93724863  0.51397794     0.14700
H1489       H  0.83850458  0.09463226  0.52121373     0.14800
C1490       C  0.81541037  0.06917527  0.46945355    -0.24200
H1491       H  0.76902606  0.92907470  0.56095511     0.05000
H1492       H  0.76813055  0.96981581  0.58128493     0.08200
H1493       H  0.81804624  0.97060046  0.57528031     0.08200
H1494       H  0.80352911  0.05084554  0.45011057     0.08200
H1495       H  0.85030553  0.09111223  0.46744631     0.08200
H1496       H  0.79928692  0.08820341  0.47205168     0.05000
C1497       C  0.50285456  0.01016066  0.51067740    -0.20800
C1498       C  0.52170835  0.99546261  0.49148729    -0.07400
C1499       C  0.50667060  0.95128052  0.48992997     0.13500
C1500       C  0.47323856  0.92335367  0.50734506    -0.20900
C1501       C  0.45470482  0.93827497  0.52670262    -0.07400
C1502       C  0.47017293  0.98252833  0.52839012     0.13500
C1503       C  0.45207116  0.00117620  0.54829443    -0.24200
H1504       H  0.51378935  0.04394703  0.51186225     0.14700
H1505       H  0.46207439  0.88952017  0.50620362     0.14800
C1506       C  0.52656017  0.93344709  0.47084960    -0.24200
H1507       H  0.46671510  0.03617395  0.54578222     0.05000
H1508       H  0.45829189  0.99526031  0.56971007     0.08200
H1509       H  0.41729797  0.98679811  0.54479178     0.08200
H1510       H  0.56114470  0.94815905  0.47541514     0.08200
H1511       H  0.52197373  0.93992500  0.44921349     0.08200
H1512       H  0.51202217  0.89843134  0.47320022     0.05000
C1513       C  0.69543091  0.26669520  0.48693973    -0.20800
C1514       C  0.71141317  0.24450779  0.47213764    -0.07400
C1515       C  0.75603411  0.26391395  0.46833438     0.13500
C1516       C  0.78256593  0.30720913  0.47578696    -0.20900
C1517       C  0.76551848  0.33076334  0.48794411    -0.07400
C1518       C  0.72205382  0.30880681  0.49559015     0.13500
C1519       C  0.70227275  0.33059490  0.51092336    -0.24200
H1520       H  0.66156415  0.25153995  0.49104824     0.14700
H1521       H  0.81572491  0.32372497  0.46954746     0.14800
C1522       C  0.77518190  0.24007191  0.45471723    -0.24200
H1523       H  0.68591849  0.31189600  0.52952713     0.05000
H1524       H  0.67862435  0.33296976  0.49754740     0.08200
H1525       H  0.72665341  0.36292792  0.51778532     0.08200
H1526       H  0.76064732  0.22868027  0.43412887     0.08200
H1527       H  0.76913648  0.21224414  0.46749335     0.08200
H1528       H  0.81022673  0.26043934  0.45216206     0.05000
C1529       C  0.71167718  0.99652420  0.43688058    -0.20800
C1530       C  0.73449036  0.00902432  0.41182603    -0.07400
C1531       C  0.74372717  0.04864662  0.40052274     0.13500
C1532       C  0.72705762  0.07237972  0.41324104    -0.20900
C1533       C  0.70126456  0.05769403  0.43695701    -0.07400
C1534       C  0.69561485  0.02040471  0.44961162     0.13500
C1535       C  0.67021133  0.00424376  0.47568111    -0.24200
H1536       H  0.70486648  0.96683020  0.44637565     0.14700
H1537       H  0.73172269  0.10130353  0.40358335     0.14800
C1538       C  0.76854830  0.06475086  0.37428251    -0.24200
H1539       H  0.66858077  0.97440219  0.48293468     0.05000
H1540       H  0.63713847  0.99771508  0.47226431     0.08200
H1541       H  0.68544117  0.02859847  0.49207296     0.08200
H1542       H  0.75222632  0.04119063  0.35759024     0.08200
H1543       H  0.80129272  0.07001717  0.37721376     0.08200
H1544       H  0.77133247  0.09541963  0.36777052     0.05000
C1545       C  0.44741484  0.06439155  0.34440166    -0.20800
C1546       C  0.47069871  0.06754602  0.32057965    -0.07400
C1547       C  0.50578097  0.06052132  0.32243885     0.13500
C1548       C  0.52030525  0.05710355  0.34834417    -0.20900
C1549       C  0.50222109  0.06288559  0.37216134    -0.07400
C1550       C  0.46419491  0.06440808  0.37041633     0.13500
C1551       C  0.44391629  0.07032176  0.39566488    -0.24200
H1552       H  0.41998965  0.06888148  0.34295627     0.14700
H1553       H  0.54911526  0.05498555  0.34982997     0.14800
C1554       C  0.53078118  0.05975657  0.29789162    -0.24200
H1555       H  0.41394313  0.07038712  0.39070451     0.05000
H1556       H  0.46627692  0.10129789  0.40540330     0.08200
H1557       H  0.43628028  0.04406249  0.41036380     0.08200
H1558       H  0.56407104  0.08675247  0.29922400     0.08200
H1559       H  0.51700061  0.06193786  0.27805339     0.08200
H1560       H  0.53148031  0.02947258  0.29776296     0.05000
C1561       C  0.28096530  0.73875975  0.06248999    -0.20800
C1562       C  0.26185418  0.69646562  0.05332063    -0.07400
C1563       C  0.28439245  0.68549851  0.03444848     0.13500
C1564       C  0.32658899  0.71503328  0.02759899    -0.20900
C1565       C  0.34798734  0.75516452  0.03989926    -0.07400
C1566       C  0.32388237  0.76821701  0.05599933     0.13500
C1567       C  0.34340977  0.81243053  0.06767805    -0.24200
H1568       H  0.26342418  0.74816070  0.07608413     0.14700
H1569       H  0.34415586  0.70479331  0.01489500     0.14800
C1570       C  0.26454750  0.64203887  0.02201245    -0.24200
H1571       H  0.34147696  0.81087075  0.09039104     0.05000
H1572       H  0.32548004  0.82789846  0.06007109     0.08200
H1573       H  0.37724008  0.83259142  0.06154614     0.08200
H1574       H  0.23498561  0.63549853  0.01098500     0.08200
H1575       H  0.25733064  0.61818952  0.03841836     0.08200
H1576       H  0.28607414  0.63918948  0.00703512     0.05000
C1577       C  0.47503506  0.66705266  0.05082130    -0.20800
C1578       C  0.46054619  0.69193131  0.03755651    -0.07400
C1579       C  0.43152265  0.67296326  0.01525231     0.13500
C1580       C  0.41079349  0.62837852  0.01133081    -0.20900
C1581       C  0.42142353  0.60258131  0.02712015    -0.07400
C1582       C  0.45735487  0.62327932  0.04480138     0.13500
C1583       C  0.47721531  0.59978725  0.05799567    -0.24200
H1584       H  0.49942859  0.68147024  0.06656972     0.14700
H1585       H  0.38436807  0.61329633  0.99699030     0.14800
C1586       C  0.42101877  0.69899640  0.99604935    -0.24200
H1587       H  0.47868878  0.60415503  0.08053978     0.05000
H1588       H  0.51039208  0.61319017  0.05041448     0.08200
H1589       H  0.45964984  0.56530908  0.05309203     0.08200
H1590       H  0.45041978  0.72245175  0.98521106     0.08200
H1591       H  0.40819106  0.71623643  0.00762728     0.08200
H1592       H  0.39703881  0.67893676  0.98032797     0.05000
C1593       C  0.48979975  0.80726605  0.18451863    -0.20800
C1594       C  0.51994731  0.81613918  0.16391992    -0.07400
C1595       C  0.55365276  0.80812370  0.16845560     0.13500
C1596       C  0.55431934  0.78776882  0.19273965    -0.20900
C1597       C  0.52040890  0.77272735  0.21171380    -0.07400
C1598       C  0.48857779  0.78441788  0.20802307     0.13500
C1599       C  0.45107389  0.77020771  0.22705263    -0.24200
H1600       H  0.46374915  0.81330804  0.18052625     0.14700
H1601       H  0.57963258  0.78034954  0.19560843     0.14800
C1602       C  0.58761508  0.81921810  0.14708146    -0.24200
H1603       H  0.43040770  0.78353764  0.22107842     0.05000
H1604       H  0.46263788  0.78123255  0.24814079     0.08200
H1605       H  0.43086137  0.73500084  0.22660664     0.08200
H1606       H  0.60425147  0.85398544  0.14323882     0.08200
H1607       H  0.57311942  0.80201310  0.12763127     0.08200
H1608       H  0.61175749  0.81067171  0.15382121     0.05000
C1609       C  0.33926135  0.77798872  0.14855172    -0.20800
C1610       C  0.37928771  0.81454996  0.14563569    -0.07400
C1611       C  0.39396975  0.84715813  0.16580825     0.13500
C1612       C  0.36933560  0.84087283  0.18932526    -0.20900
C1613       C  0.33111022  0.80278701  0.19314965    -0.07400
C1614       C  0.31484152  0.77176448  0.17212168     0.13500
C1615       C  0.27224090  0.73165104  0.17483944    -0.24200
H1616       H  0.32794596  0.75346561  0.13287104     0.14700
H1617       H  0.38134581  0.86439920  0.20565138     0.14800
C1618       C  0.43689907  0.88717000  0.16381823    -0.24200
H1619       H  0.26361133  0.71171135  0.15601185     0.05000
H1620       H  0.24692072  0.73988318  0.17855734     0.08200
H1621       H  0.27325107  0.71236835  0.19217532     0.08200
H1622       H  0.43779817  0.90566316  0.14541793     0.08200
H1623       H  0.46254795  0.87891479  0.16250551     0.08200
H1624       H  0.44364928  0.90807703  0.18201739     0.05000
C1625       C  0.97904500  0.07817149  0.17116480    -0.20800
C1626       C  0.96149678  0.09359366  0.15170471    -0.07400
C1627       C  0.99026706  0.12975766  0.13619431     0.13500
C1628       C  0.03266352  0.13943973  0.13340742    -0.20900
C1629       C  0.04791733  0.11660824  0.14802133    -0.07400
C1630       C  0.02223886  0.08879846  0.16923297     0.13500
C1631       C  0.03903410  0.06776330  0.18827226    -0.24200
H1632       H  0.95828690  0.05455698  0.18580619     0.14700
H1633       H  0.05320552  0.16340626  0.11871753     0.14800
C1634       C  0.97604726  0.15603662  0.12028447    -0.24200
H1635       H  0.01456794  0.04678841  0.20337137     0.05000
H1636       H  0.06684332  0.09242256  0.19992257     0.08200
H1637       H  0.04884323  0.04804080  0.17630092     0.08200
H1638       H  0.94200164  0.14588916  0.12398041     0.08200
H1639       H  0.98108496  0.15326435  0.09814483     0.08200
H1640       H  0.99544297  0.18993009  0.12653041     0.05000
C1641       C  0.84863042  0.87277312  0.13609230    -0.20800
C1642       C  0.87460922  0.91716675  0.13911747    -0.07400
C1643       C  0.91462667  0.93270490  0.15224298     0.13500
C1644       C  0.92976525  0.90504045  0.15889434    -0.20900
C1645       C  0.90651916  0.86154520  0.15279889    -0.07400
C1646       C  0.86427042  0.84481510  0.14272843     0.13500
C1647       C  0.83660477  0.79781764  0.13776252    -0.24200
H1648       H  0.81719563  0.86017735  0.12701412     0.14700
H1649       H  0.96220373  0.91862709  0.16629743     0.14800
C1650       C  0.94174263  0.97872272  0.15965217    -0.24200
H1651       H  0.80462140  0.78978429  0.12980301     0.05000
H1652       H  0.83228395  0.78034218  0.15730256     0.08200
H1653       H  0.85177293  0.78691446  0.12260301     0.08200
H1654       H  0.92236189  0.98750491  0.17274458     0.08200
H1655       H  0.95267465  0.99879614  0.14096052     0.08200
H1656       H  0.97055854  0.98483490  0.17147019     0.05000
C1657       C  0.66520460  0.93851510  0.11857814    -0.20800
C1658       C  0.69089966  0.92179387  0.11079598    -0.07400
C1659       C  0.67404141  0.88719282  0.09206375     0.13500
C1660       C  0.63272804  0.87154803  0.08070711    -0.20900
C1661       C  0.60813497  0.89079752  0.08666666    -0.07400
C1662       C  0.62503345  0.92478479  0.10651044     0.13500
C1663       C  0.60278208  0.94902844  0.11481016    -0.24200
H1664       H  0.67874497  0.96588399  0.13219939     0.14700
H1665       H  0.62031689  0.84513854  0.06639793     0.14800
C1666       C  0.70041668  0.86758164  0.08352051    -0.24200
H1667       H  0.62170435  0.97480103  0.12981129     0.05000
H1668       H  0.57196652  0.92742973  0.12487358     0.08200
H1669       H  0.59789535  0.96452616  0.09657333     0.08200
H1670       H  0.70927988  0.85561926  0.10195608     0.08200
H1671       H  0.72991077  0.89158198  0.07303318     0.08200
H1672       H  0.68264094  0.84045470  0.06919743     0.05000
C1673       C  0.89418096  0.12738657  0.99132844    -0.20800
C1674       C  0.93880235  0.15263364  0.99202736    -0.07400
C1675       C  0.95937351  0.16911710  0.01752160     0.13500
C1676       C  0.93536445  0.15488882  0.04176517    -0.20900
C1677       C  0.89189636  0.12438678  0.04109908    -0.07400
C1678       C  0.87037248  0.11374792  0.01556235     0.13500
C1679       C  0.82283866  0.08475417  0.01320336    -0.24200
H1680       H  0.87805126  0.11537381  0.97179959     0.14700
H1681       H  0.95154773  0.16394813  0.06140440     0.14800
C1682       C  0.00703135  0.19779798  0.01956697    -0.24200
H1683       H  0.80888595  0.10087489  0.00112549     0.05000
H1684       H  0.80690989  0.07661249  0.03348053     0.08200
H1685       H  0.81590327  0.05489191  0.00252108     0.08200
H1686       H  0.01675091  0.22756039  0.00790322     0.08200
H1687       H  0.02356199  0.18141242  0.01116255     0.08200
H1688       H  0.01767666  0.20672428  0.04118351     0.05000
C1689       C  0.77630268  0.93831254  0.00893165    -0.20800
C1690       C  0.81787097  0.96247194  0.01920547    -0.07400
C1691       C  0.85298259  0.96961336  0.00288947     0.13500
C1692       C  0.84547855  0.94912374  0.97754271    -0.20900
C1693       C  0.80380735  0.92058397  0.96867882    -0.07400
C1694       C  0.76866766  0.91669239  0.98386370     0.13500
C1695       C  0.72325842  0.88969043  0.97398759    -0.24200
H1696       H  0.74970642  0.93468411  0.02119654     0.14700
H1697       H  0.87244742  0.95254545  0.96581176     0.14800
C1698       C  0.89838941  0.99847630  0.01217844    -0.24200
H1699       H  0.70052306  0.89350923  0.98733182     0.05000
H1700       H  0.71354460  0.85545470  0.97419123     0.08200
H1701       H  0.72016419  0.89935528  0.95285697     0.08200
H1702       H  0.90506038  0.98571954  0.03110545     0.08200
H1703       H  0.90358101  0.03087227  0.01621310     0.08200
H1704       H  0.92174997  0.00130566  0.99637335     0.05000
C1705       C  0.35281843  0.56478693  0.32494460    -0.20800
C1706       C  0.37357602  0.55712697  0.30314807    -0.07400
C1707       C  0.35018537  0.51979840  0.28721004     0.13500
C1708       C  0.30590347  0.49411471  0.29133700    -0.20900
C1709       C  0.28425345  0.50506365  0.31071214    -0.07400
C1710       C  0.30835751  0.53961195  0.32857328     0.13500
C1711       C  0.28662093  0.55210849  0.34986304    -0.24200
H1712       H  0.37063445  0.59300405  0.33750098     0.14700
H1713       H  0.28743794  0.46770662  0.27749333     0.14800
C1714       C  0.37150470  0.50745234  0.26541039    -0.24200
H1715       H  0.30989000  0.57968703  0.36233233     0.05000
H1716       H  0.26789644  0.52489817  0.36387874     0.08200
H1717       H  0.26500029  0.56114631  0.33952967     0.08200
H1718       H  0.39814130  0.50473069  0.27467939     0.08200
H1719       H  0.38409630  0.53157055  0.24884989     0.08200
H1720       H  0.34889227  0.47635160  0.25585379     0.05000
C1721       C  0.20189174  0.59186843  0.33548030    -0.20800
C1722       C  0.17645584  0.57708408  0.31159325    -0.07400
C1723       C  0.16531100  0.60499787  0.29837005     0.13500
C1724       C  0.18471405  0.64794724  0.30696280    -0.20900
C1725       C  0.21690776  0.66434321  0.32719291    -0.07400
C1726       C  0.22276408  0.63509384  0.34307183     0.13500
C1727       C  0.25187514  0.64892627  0.36764367    -0.24200
H1728       H  0.20797196  0.57023492  0.34740339     0.14700
H1729       H  0.17828506  0.66988547  0.29564418     0.14800
C1730       C  0.13379274  0.59012163  0.27497994    -0.24200
H1731       H  0.27818882  0.64206478  0.36416138     0.05000
H1732       H  0.23359676  0.63097639  0.38599327     0.08200
H1733       H  0.26545226  0.68333971  0.37207074     0.08200
H1734       H  0.12664674  0.61524386  0.26835619     0.08200
H1735       H  0.10338147  0.56193652  0.28145764     0.08200
H1736       H  0.14685941  0.58170556  0.25702535     0.05000
C1737       C  0.25090145  0.41393307  0.15880914    -0.20800
C1738       C  0.29288964  0.44783141  0.15783317    -0.07400
C1739       C  0.31022255  0.47491522  0.18086786     0.13500
C1740       C  0.28405351  0.46961977  0.20349511    -0.20900
C1741       C  0.24077965  0.43792601  0.20369506    -0.07400
C1742       C  0.22445689  0.40861862  0.18139135     0.13500
C1743       C  0.17850908  0.37350615  0.18012649    -0.24200
H1744       H  0.23786028  0.39342964  0.14099478     0.14700
H1745       H  0.29700297  0.49159246  0.22061483     0.14800
C1746       C  0.35618296  0.51019124  0.18127326    -0.24200
H1747       H  0.17116572  0.35488784  0.16077825     0.05000
H1748       H  0.15711895  0.38722428  0.18115714     0.08200
H1749       H  0.17162944  0.35107311  0.19742874     0.08200
H1750       H  0.36187806  0.53362451  0.16485086     0.08200
H1751       H  0.37745638  0.49665146  0.17811471     0.08200
H1752       H  0.36492951  0.52765128  0.20107996     0.05000
C1753       C  0.09130106  0.43109149  0.17060633    -0.20800
C1754       C  0.09195465  0.45266162  0.19465305    -0.07400
C1755       C  0.07876899  0.48339957  0.19373749     0.13500
C1756       C  0.06813516  0.49366578  0.16841247    -0.20900
C1757       C  0.07596975  0.47837659  0.14400187    -0.07400
C1758       C  0.08556577  0.44521531  0.14502273     0.13500
C1759       C  0.09430240  0.42810556  0.11929035    -0.24200
H1760       H  0.10129357  0.40744685  0.17145120     0.14700
H1761       H  0.06079307  0.51925399  0.16755546     0.14800
C1762       C  0.07918551  0.50882903  0.21839165    -0.24200
H1763       H  0.10040219  0.40151817  0.12367729     0.05000
H1764       H  0.12309373  0.45382386  0.10916868     0.08200
H1765       H  0.06639096  0.41613795  0.10526315     0.08200
H1766       H  0.10222613  0.54308862  0.21484319     0.08200
H1767       H  0.08832890  0.49925864  0.23768796     0.08200
H1768       H  0.04700270  0.50492186  0.22135514     0.05000
C1769       C  0.61840220  0.15163936  0.20895166    -0.20800
C1770       C  0.59357586  0.17012113  0.20172598    -0.07400
C1771       C  0.61300489  0.20826797  0.18606435     0.13500
C1772       C  0.65716958  0.22944420  0.18125948    -0.20900
C1773       C  0.68271046  0.21342942  0.19121450    -0.07400
C1774       C  0.66256858  0.17239106  0.20320962     0.13500
C1775       C  0.68808007  0.15165353  0.21141745    -0.24200
H1776       H  0.60363032  0.12185130  0.22016270     0.14700
H1777       H  0.67258345  0.26093024  0.17211742     0.14800
C1778       C  0.58863953  0.22970419  0.17697492    -0.24200
H1779       H  0.66753714  0.11956507  0.22036402     0.05000
H1780       H  0.71244788  0.17135705  0.22689059     0.08200
H1781       H  0.70424470  0.14813146  0.19308151     0.08200
H1782       H  0.57685224  0.23832597  0.19538920     0.08200
H1783       H  0.56163594  0.20819921  0.16346087     0.08200
H1784       H  0.60892463  0.25948197  0.16535580     0.05000
C1785       C  0.79125363  0.12447506  0.20391573    -0.20800
C1786       C  0.80117457  0.16328345  0.19145693    -0.07400
C1787       C  0.80362835  0.16592136  0.16225850     0.13500
C1788       C  0.79958564  0.13123245  0.14685595    -0.20900
C1789       C  0.79367485  0.09405578  0.15959867    -0.07400
C1790       C  0.78776667  0.09002803  0.18846371     0.13500
C1791       C  0.77736835  0.04934440  0.20316101    -0.24200
H1792       H  0.78786270  0.12156446  0.22603285     0.14700
H1793       H  0.80338541  0.13406030  0.12474974     0.14800
C1794       C  0.81032345  0.20487735  0.14681939    -0.24200
H1795       H  0.77038326  0.05062858  0.22522062     0.05000
H1796       H  0.80470653  0.04358957  0.20214021     0.08200
H1797       H  0.74877154  0.02219349  0.19366620     0.08200
H1798       H  0.84223379  0.23241582  0.15154070     0.08200
H1799       H  0.78499002  0.21227405  0.15227341     0.08200
H1800       H  0.80880997  0.20000378  0.12423823     0.05000
C1801       C  0.76432597  0.37772257  0.18366502    -0.20800
C1802       C  0.79579525  0.39029374  0.20420591    -0.07400
C1803       C  0.81046663  0.42991689  0.21730425     0.13500
C1804       C  0.78841165  0.45231938  0.21289146    -0.20900
C1805       C  0.75217728  0.43576743  0.19575862    -0.07400
C1806       C  0.74251507  0.40013813  0.17924831     0.13500
C1807       C  0.70771786  0.38377264  0.15796626    -0.24200
H1808       H  0.75387555  0.34811180  0.17265692     0.14700
H1809       H  0.79675612  0.48046864  0.22505198     0.14800
C1810       C  0.84873889  0.44812501  0.23611630    -0.24200
H1811       H  0.72092391  0.38187985  0.13780526     0.05000
H1812       H  0.69437763  0.40528822  0.15544615     0.08200
H1813       H  0.68189741  0.35143653  0.16374494     0.08200
H1814       H  0.87696160  0.45220933  0.22455942     0.08200
H1815       H  0.84319086  0.42671863  0.25379402     0.08200
H1816       H  0.85617721  0.47968939  0.24433837     0.05000
C1817       C  0.94488563  0.32502414  0.27598064    -0.20800
C1818       C  0.93683351  0.34038494  0.25132087    -0.07400
C1819       C  0.96850793  0.38111179  0.24206908     0.13500
C1820       C  0.00830937  0.40259451  0.25596721    -0.20900
C1821       C  0.01703931  0.38549850  0.27946444    -0.07400
C1822       C  0.98382754  0.34709749  0.29017327     0.13500
C1823       C  0.98891204  0.32810531  0.31638837    -0.24200
H1824       H  0.92054449  0.29493981  0.28443300     0.14700
H1825       H  0.03382057  0.43172475  0.24736432     0.14800
C1826       C  0.96132001  0.40116637  0.21707933    -0.24200
H1827       H  0.96334526  0.32338639  0.33095487     0.05000
H1828       H  0.01989266  0.34910864  0.32658271     0.08200
H1829       H  0.98624614  0.29680304  0.31203128     0.08200
H1830       H  0.93393677  0.40636772  0.22062470     0.08200
H1831       H  0.95476144  0.38020386  0.19896243     0.08200
H1832       H  0.98958078  0.43249273  0.21237090     0.05000
C1833       C  0.65441006  0.18270838  0.33967215    -0.20800
C1834       C  0.65692505  0.14824205  0.35057961    -0.07400
C1835       C  0.67478847  0.12846214  0.33477792     0.13500
C1836       C  0.69418376  0.14685480  0.30971034    -0.20900
C1837       C  0.69490326  0.18364878  0.29986873    -0.07400
C1838       C  0.67267063  0.20043244  0.31433383     0.13500
C1839       C  0.67027245  0.23858788  0.30428224    -0.24200
H1840       H  0.63890797  0.19654043  0.35144578     0.14700
H1841       H  0.71087832  0.13383370  0.29842194     0.14800
C1842       C  0.67563168  0.08963626  0.34488892    -0.24200
H1843       H  0.65150018  0.24700725  0.31836743     0.05000
H1844       H  0.65444051  0.23154240  0.28385996     0.08200
H1845       H  0.70278499  0.26672985  0.30283577     0.08200
H1846       H  0.64254683  0.06268616  0.34710856     0.08200
H1847       H  0.69210198  0.09658382  0.36500008     0.08200
H1848       H  0.69271703  0.07961201  0.33046881     0.05000
C1849       C  0.87138348  0.38050730  0.35895707    -0.20800
C1850       C  0.83818745  0.36274871  0.37854233    -0.07400
C1851       C  0.80242195  0.32203964  0.37316647     0.13500
C1852       C  0.79907282  0.30269624  0.34764456    -0.20900
C1853       C  0.83019649  0.32276699  0.32732036    -0.07400
C1854       C  0.86752525  0.36145224  0.33327317     0.13500
C1855       C  0.90241992  0.38499831  0.31251191    -0.24200
H1856       H  0.89942285  0.41125750  0.36270302     0.14700
H1857       H  0.77073618  0.27256731  0.34291100     0.14800
C1858       C  0.76686613  0.29910443  0.39353105    -0.24200
H1859       H  0.93292414  0.38882804  0.32053809     0.05000
H1860       H  0.90636011  0.41701612  0.30883993     0.08200
H1861       H  0.89574858  0.36850271  0.29245801     0.08200
H1862       H  0.74839242  0.31582365  0.39584467     0.08200
H1863       H  0.78057477  0.29761355  0.41357755     0.08200
H1864       H  0.74414854  0.26596066  0.38693646     0.05000
C1865       C  0.63872084  0.44147136  0.46587154    -0.20800
C1866       C  0.62005017  0.41156936  0.48730396    -0.07400
C1867       C  0.64768845  0.40628744  0.50527322     0.13500
C1868       C  0.69126325  0.42454726  0.49873644    -0.20900
C1869       C  0.70835052  0.44772479  0.47427442    -0.07400
C1870       C  0.68245047  0.45946954  0.45903082     0.13500
C1871       C  0.70062626  0.49089892  0.43576273    -0.24200
H1872       H  0.61829452  0.44798277  0.45288661     0.14700
H1873       H  0.71130801  0.41804267  0.51208370     0.14800
C1874       C  0.63162588  0.38040923  0.53110967    -0.24200
H1875       H  0.67636137  0.49769992  0.42679930     0.05000
H1876       H  0.71216368  0.47844034  0.41909263     0.08200
H1877       H  0.72761173  0.52132248  0.44347098     0.08200
H1878       H  0.63882152  0.35408153  0.53080991     0.08200
H1879       H  0.59676294  0.36695444  0.53381293     0.08200
H1880       H  0.64804901  0.40101906  0.54908957     0.05000
C1881       C  0.56113530  0.20191923  0.50070394    -0.20800
C1882       C  0.53896114  0.16280616  0.48717271    -0.07400
C1883       C  0.49807614  0.15067388  0.47613655     0.13500
C1884       C  0.48635368  0.18187485  0.47185061    -0.20900
C1885       C  0.51275605  0.22371678  0.48095883    -0.07400
C1886       C  0.54844052  0.23263906  0.49777772     0.13500
C1887       C  0.57594019  0.27568452  0.51043099    -0.24200
H1888       H  0.59147731  0.21069874  0.51031525     0.14700
H1889       H  0.45740546  0.17397412  0.46060863     0.14800
C1890       C  0.46776143  0.10512487  0.46799755    -0.24200
H1891       H  0.60116036  0.27617484  0.52376132     0.05000
H1892       H  0.55625253  0.28444421  0.52333671     0.08200
H1893       H  0.59201889  0.29951760  0.49403972     0.08200
H1894       H  0.46025103  0.08442107  0.48634334     0.08200
H1895       H  0.48175127  0.09386401  0.45219428     0.08200
H1896       H  0.43733146  0.10117693  0.45970915     0.05000
C1897       C  0.58896806  0.45950670  0.36759114    -0.20800
C1898       C  0.59759329  0.43175167  0.38294880    -0.07400
C1899       C  0.63275886  0.42670816  0.37552488     0.13500
C1900       C  0.65539924  0.44638712  0.35171885    -0.20900
C1901       C  0.64293220  0.46918106  0.33440218    -0.07400
C1902       C  0.61119817  0.47826816  0.34326680     0.13500
C1903       C  0.59910390  0.50563547  0.32664669    -0.24200
H1904       H  0.56285709  0.46430941  0.37366291     0.14700
H1905       H  0.68108145  0.44104009  0.34536506     0.14800
C1906       C  0.64435724  0.39731124  0.39051803    -0.24200
H1907       H  0.57295111  0.50857144  0.33638527     0.05000
H1908       H  0.58821739  0.49171717  0.30588005     0.08200
H1909       H  0.62721005  0.53807908  0.32497671     0.08200
H1910       H  0.61745544  0.36404541  0.38934521     0.08200
H1911       H  0.65198058  0.40696782  0.41228136     0.08200
H1912       H  0.67276947  0.39776280  0.38150484     0.05000
C1913       C  0.48111064  0.23539681  0.36681717    -0.20800
C1914       C  0.46426756  0.26282670  0.36541727    -0.07400
C1915       C  0.43867580  0.26024046  0.34267155     0.13500
C1916       C  0.43357611  0.23240754  0.32090752    -0.20900
C1917       C  0.45488151  0.20885623  0.32126623    -0.07400
C1918       C  0.47750203  0.20915827  0.34500428     0.13500
C1919       C  0.49770406  0.18155958  0.34774911    -0.24200
H1920       H  0.49905124  0.23580867  0.38483001     0.14700
H1921       H  0.41499835  0.23083417  0.30298593     0.14800
C1922       C  0.41868084  0.28793955  0.34062246    -0.24200
H1923       H  0.51114794  0.18351534  0.36859264     0.05000
H1924       H  0.52419198  0.19148027  0.33290855     0.08200
H1925       H  0.47316964  0.14800599  0.34400892     0.08200
H1926       H  0.44387987  0.32200203  0.34137212     0.08200
H1927       H  0.39615744  0.28089854  0.35787673     0.08200
H1928       H  0.40058566  0.28235545  0.32113527     0.05000
C1929       C  0.99743572  0.11678451  0.37922316    -0.20800
C1930       C  0.01648173  0.10044191  0.36148054    -0.07400
C1931       C  0.98980231  0.06189608  0.34760917     0.13500
C1932       C  0.94610826  0.03855995  0.35393767    -0.20900
C1933       C  0.92805941  0.05185610  0.37459199    -0.07400
C1934       C  0.95384216  0.09261612  0.38647548     0.13500
C1935       C  0.93619415  0.11029539  0.40740198    -0.24200
H1936       H  0.01776808  0.14636882  0.38996089     0.14700
H1937       H  0.92679632  0.00797891  0.34404851     0.14800
C1938       C  0.00740534  0.04322642  0.32737645    -0.24200
H1939       H  0.96012850  0.14336570  0.41339578     0.05000
H1940       H  0.92694205  0.09063274  0.42630418     0.08200
H1941       H  0.90795270  0.11071568  0.39874661     0.08200
H1942       H  0.00309225  0.01266934  0.33539279     0.08200
H1943       H  0.04186150  0.06483482  0.32335307     0.08200
H1944       H  0.99014220  0.03728399  0.30752722     0.05000
C1945       C  0.11097476  0.27281012  0.35904865    -0.20800
C1946       C  0.14997486  0.27376539  0.36215556    -0.07400
C1947       C  0.18577507  0.30371100  0.34677641     0.13500
C1948       C  0.18141983  0.33149571  0.32861210    -0.20900
C1949       C  0.14245223  0.33056648  0.32555624    -0.07400
C1950       C  0.10674056  0.30072332  0.34093973     0.13500
C1951       C  0.06374417  0.29732557  0.33777319    -0.24200
H1952       H  0.08340117  0.24939060  0.37035805     0.14700
H1953       H  0.20889487  0.35483479  0.31719543     0.14800
C1954       C  0.22912535  0.30767309  0.35005403    -0.24200
H1955       H  0.03872400  0.27028594  0.34969783     0.05000
H1956       H  0.05406839  0.29233728  0.31581807     0.08200
H1957       H  0.06532353  0.32685165  0.34543590     0.08200
H1958       H  0.22855836  0.27862360  0.34231381     0.08200
H1959       H  0.23867456  0.31260725  0.37203299     0.08200
H1960       H  0.25397935  0.33507927  0.33829783     0.05000
C1961       C  0.13879059  0.97148337  0.38041536    -0.20800
C1962       C  0.09762754  0.94495671  0.36927682    -0.07400
C1963       C  0.07785425  0.96457109  0.35510921     0.13500
C1964       C  0.09439562  0.00858237  0.35822368    -0.20900
C1965       C  0.13016193  0.03306258  0.37494428    -0.07400
C1966       C  0.15444591  0.01517987  0.38445614     0.13500
C1967       C  0.19564565  0.04174577  0.39979778    -0.24200
H1968       H  0.15546714  0.95693743  0.39003531     0.14700
H1969       H  0.07702313  0.02305244  0.34954066     0.14800
C1970       C  0.03797275  0.94021108  0.33827035    -0.24200
H1971       H  0.21170912  0.02324378  0.40470498     0.05000
H1972       H  0.18945815  0.05349577  0.41931870     0.08200
H1973       H  0.21772796  0.06936250  0.38699569     0.08200
H1974       H  0.01195941  0.94372109  0.34758849     0.08200
H1975       H  0.02787835  0.90606422  0.33629204     0.08200
H1976       H  0.04377832  0.95362892  0.31719521     0.05000
C1977       C  0.34831038  0.23781711  0.41655825    -0.20800
C1978       C  0.35684438  0.25669771  0.44288202    -0.07400
C1979       C  0.32278436  0.25561424  0.45753128     0.13500
C1980       C  0.28195752  0.23754342  0.44535429    -0.20900
C1981       C  0.27362287  0.22059782  0.41843987    -0.07400
C1982       C  0.30723153  0.21954379  0.40427175     0.13500
C1983       C  0.30074384  0.20152079  0.37569774    -0.24200
H1984       H  0.37454545  0.23943073  0.40490187     0.14700
H1985       H  0.25653372  0.23796878  0.45679487     0.14800
C1986       C  0.33003868  0.27541026  0.48563729    -0.24200
H1987       H  0.33057352  0.20437501  0.36727048     0.05000
H1988       H  0.29026559  0.21889109  0.36180810     0.08200
H1989       H  0.27619606  0.16721950  0.37595939     0.08200
H1990       H  0.35369667  0.30994565  0.48446611     0.08200
H1991       H  0.34228613  0.25978028  0.49968297     0.08200
H1992       H  0.30013609  0.27180510  0.49448694     0.05000
C1993       C  0.19959107  0.13005657  0.49803651    -0.20800
C1994       C  0.16112230  0.13021442  0.49579082    -0.07400
C1995       C  0.13155098  0.11491938  0.51760134     0.13500
C1996       C  0.13946877  0.09608208  0.54021179    -0.20900
C1997       C  0.17593592  0.09188658  0.54125838    -0.07400
C1998       C  0.20732219  0.11063494  0.52049137     0.13500
C1999       C  0.24732162  0.10742088  0.52067529    -0.24200
H2000       H  0.22209758  0.14217590  0.48117392     0.14700
H2001       H  0.11596724  0.08245861  0.55645292     0.14800
C2002       C  0.09112956  0.11736061  0.51673261    -0.24200
H2003       H  0.26719412  0.12234683  0.50219984     0.05000
H2004       H  0.23886890  0.07347446  0.52102710     0.08200
H2005       H  0.26694786  0.12402485  0.53898579     0.08200
H2006       H  0.07028970  0.09727449  0.49979934     0.08200
H2007       H  0.09903192  0.15085618  0.51353638     0.08200
H2008       H  0.07274990  0.10584265  0.53612323     0.05000
C2009       C  0.00460640  0.16556808  0.50672740    -0.20800
C2010       C  0.98210342  0.12375189  0.51660955    -0.07400
C2011       C  0.97775385  0.08989348  0.50009040     0.13500
C2012       C  0.00002317  0.09913982  0.47529395    -0.20900
C2013       C  0.02737050  0.14146190  0.46707877    -0.07400
C2014       C  0.02766979  0.17498567  0.48214611     0.13500
C2015       C  0.05196461  0.22051061  0.47248538    -0.24200
H2016       H  0.00566644  0.19111473  0.51889001     0.14700
H2017       H  0.99868952  0.07316380  0.46347494     0.14800
C2018       C  0.94976738  0.04408305  0.50855486    -0.24200
H2019       H  0.04414980  0.24133382  0.48494600     0.05000
H2020       H  0.04333546  0.22240982  0.45083714     0.08200
H2021       H  0.08683503  0.23320773  0.47420463     0.08200
H2022       H  0.91657488  0.03741768  0.51169236     0.08200
H2023       H  0.96193513  0.03767115  0.52786124     0.08200
H2024       H  0.94896678  0.02170019  0.49267777     0.05000
C2025       C  0.65925810  0.15680109  0.97890735    -0.20800
C2026       C  0.63445168  0.17487962  0.98732057    -0.07400
C2027       C  0.65528190  0.21680142  0.99778873     0.13500
C2028       C  0.70002146  0.24102329  0.99646843    -0.20900
C2029       C  0.72379213  0.22509290  0.98335420    -0.07400
C2030       C  0.70358934  0.18195974  0.97568790     0.13500
C2031       C  0.72835696  0.16319255  0.96281106    -0.24200
H2032       H  0.64324432  0.12445655  0.97106605     0.14700
H2033       H  0.71591037  0.27419980  0.00263994     0.14800
C2034       C  0.63049027  0.23777039  0.00717470    -0.24200
H2035       H  0.70759971  0.12877123  0.95824271     0.05000
H2036       H  0.75394225  0.16677119  0.97708669     0.08200
H2037       H  0.74291352  0.17970660  0.94323762     0.08200
H2038       H  0.60888819  0.21912654  0.02420728     0.08200
H2039       H  0.61134164  0.23955698  0.98990540     0.08200
H2040       H  0.65189829  0.27073800  0.01463970     0.05000
C2041       C  0.46346548  0.95693647  0.03483886    -0.20800
C2042       C  0.47938089  0.93185260  0.02358455    -0.07400
C2043       C  0.49199643  0.93803088  0.99551974     0.13500
C2044       C  0.48915657  0.96931564  0.98003621    -0.20900
C2045       C  0.47520545  0.99544428  0.99179239    -0.07400
C2046       C  0.46170575  0.98887625  0.01944606     0.13500
C2047       C  0.44484789  0.01510789  0.03270227    -0.24200
H2048       H  0.45321593  0.95228348  0.05606383     0.14700
H2049       H  0.49962789  0.97467803  0.95883581     0.14800
C2050       C  0.50873251  0.91225088  0.98146610    -0.24200
H2051       H  0.43370531  0.00437391  0.05398134     0.05000
H2052       H  0.41746004  0.01226678  0.02062036     0.08200
H2053       H  0.47024833  0.04902952  0.03373741     0.08200
H2054       H  0.48476478  0.87782221  0.98271799     0.08200
H2055       H  0.53914483  0.91855073  0.99119722     0.08200
H2056       H  0.51543264  0.92056056  0.95938926     0.05000
C2057       C  0.53509770  0.26278817  0.98920752    -0.20800
C2058       C  0.52834110  0.24600590  0.96236334    -0.07400
C2059       C  0.53321571  0.27259370  0.93997943     0.13500
C2060       C  0.54860547  0.31588185  0.94462206    -0.20900
C2061       C  0.56108662  0.33413637  0.97086977    -0.07400
C2062       C  0.55155102  0.30690621  0.99371341     0.13500
C2063       C  0.56023591  0.32441301  0.02244626    -0.24200
H2064       H  0.53069374  0.24209242  0.00645107     0.14700
H2065       H  0.55549114  0.33651232  0.92713828     0.14800
C2066       C  0.52473756  0.25593513  0.91089362    -0.24200
H2067       H  0.55115281  0.29881393  0.03792582     0.05000
H2068       H  0.54140757  0.34042244  0.02642589     0.08200
H2069       H  0.59453263  0.34783403  0.02516420     0.08200
H2070       H  0.49131841  0.22942329  0.90895605     0.08200
H2071       H  0.54697855  0.24451962  0.90519486     0.08200
H2072       H  0.52959042  0.28097032  0.89589348     0.05000
C2073       C  0.64319260  0.09889507  0.85260906    -0.20800
C2074       C  0.62069719  0.09491204  0.82814781    -0.07400
C2075       C  0.57550652  0.07239622  0.82838586     0.13500
C2076       C  0.55448200  0.05788267  0.85349093    -0.20900
C2077       C  0.57735432  0.06909226  0.87825586    -0.07400
C2078       C  0.62202373  0.08747320  0.87784172     0.13500
C2079       C  0.64745872  0.09906552  0.90416600    -0.24200
H2080       H  0.67779110  0.11540457  0.85242177     0.14700
H2081       H  0.52005007  0.04397220  0.85396966     0.14800
C2082       C  0.54816536  0.06535495  0.80326393    -0.24200
H2083       H  0.68218646  0.11333454  0.90022427     0.05000
H2084       H  0.63691613  0.07007426  0.91685089     0.08200
H2085       H  0.64270745  0.12259752  0.91592610     0.08200
H2086       H  0.56643775  0.07569377  0.78390060     0.08200
H2087       H  0.53041709  0.08283975  0.80568001     0.08200
H2088       H  0.52469854  0.03090602  0.80107515     0.05000
C2089       C  0.52471076  0.18679177  0.80854455    -0.20800
C2090       C  0.48369437  0.17781414  0.80063440    -0.07400
C2091       C  0.44769036  0.14638257  0.81515507     0.13500
C2092       C  0.45414801  0.12998060  0.83957729    -0.20900
C2093       C  0.49537893  0.14417211  0.84942754    -0.07400
C2094       C  0.53096888  0.17021462  0.83291250     0.13500
C2095       C  0.57548470  0.18110271  0.84121786    -0.24200
H2096       H  0.55225968  0.20949111  0.79691503     0.14700
H2097       H  0.42702110  0.10808406  0.85186625     0.14800
C2098       C  0.40249921  0.13048970  0.80550971    -0.24200
H2099       H  0.59939404  0.20089705  0.82548187     0.05000
H2100       H  0.57686174  0.15138898  0.84377456     0.08200
H2101       H  0.58452937  0.19906002  0.86084399     0.08200
H2102       H  0.39933477  0.12061950  0.78366476     0.08200
H2103       H  0.39343130  0.15534367  0.80796768     0.08200
H2104       H  0.37925275  0.10245929  0.81757924     0.05000
C2105       C  0.99670535  0.83085051  0.89383578    -0.20800
C2106       C  0.01829782  0.86371232  0.87455226    -0.07400
C2107       C  0.99380692  0.87371261  0.85667638     0.13500
C2108       C  0.94943266  0.85490459  0.86081301    -0.20900
C2109       C  0.92914588  0.82734227  0.88307018    -0.07400
C2110       C  0.95258296  0.81302812  0.89859829     0.13500
C2111       C  0.93128563  0.77965657  0.92049762    -0.24200
H2112       H  0.01515112  0.82229165  0.90727657     0.14700
H2113       H  0.93130157  0.86478758  0.84812560     0.14800
C2114       C  0.01506661  0.90645670  0.83446070    -0.24200
H2115       H  0.95355246  0.77024334  0.92960010     0.05000
H2116       H  0.90397707  0.75073997  0.91144585     0.08200
H2117       H  0.91952367  0.79183640  0.93720027     0.08200
H2118       H  0.03231626  0.89617530  0.82038151     0.08200
H2119       H  0.03811240  0.93760098  0.84364039     0.08200
H2120       H  0.99152816  0.91077420  0.82221685     0.05000
C2121       C  0.10246815  0.09953608  0.90667622    -0.20800
C2122       C  0.07327173  0.08820793  0.88480403    -0.07400
C2123       C  0.06880942  0.05641117  0.86634703     0.13500
C2124       C  0.09097148  0.03438060  0.87140719    -0.20900
C2125       C  0.11593545  0.04186053  0.89530357    -0.07400
C2126       C  0.12339504  0.07637850  0.91245325     0.13500
C2127       C  0.15261620  0.08851764  0.93702546    -0.24200
H2128       H  0.10622979  0.12441694  0.92066537     0.14700
H2129       H  0.08591658  0.00878255  0.85769034     0.14800
C2130       C  0.03860699  0.04390939  0.84234369    -0.24200
H2131       H  0.15671975  0.11784478  0.94707789     0.05000
H2132       H  0.18456976  0.09457317  0.93050565     0.08200
H2133       H  0.13928105  0.06271845  0.95254921     0.08200
H2134       H  0.04780552  0.07204436  0.82902957     0.08200
H2135       H  0.00565255  0.03173460  0.84990935     0.08200
H2136       H  0.03893806  0.01853590  0.82974270     0.05000
C2137       C  0.35218326  0.07477527  0.91857806    -0.20800
C2138       C  0.36588130  0.05986571  0.94103541    -0.07400
C2139       C  0.33561214  0.02376541  0.95540286     0.13500
C2140       C  0.29349464  0.00153077  0.94567508    -0.20900
C2141       C  0.28015147  0.01430171  0.92196134    -0.07400
C2142       C  0.30960636  0.05262302  0.90898110     0.13500
C2143       C  0.29727885  0.06868785  0.88408429    -0.24200
H2144       H  0.37568278  0.10235132  0.90732971     0.14700
H2145       H  0.27112278  0.97253193  0.95616463     0.14800
C2146       C  0.34826830  0.00652567  0.97964508    -0.24200
H2147       H  0.32459934  0.09857460  0.87610790     0.05000
H2148       H  0.27136676  0.07535193  0.88947550     0.08200
H2149       H  0.28616033  0.04445430  0.86748859     0.08200
H2150       H  0.36173578  0.03098544  0.99609289     0.08200
H2151       H  0.37248147  0.99789840  0.97334096     0.08200
H2152       H  0.32058814  0.97760753  0.98831157     0.05000
C2153       C  0.13938938  0.96037793  0.02708450    -0.20800
C2154       C  0.17350228  0.97635502  0.00848261    -0.07400
C2155       C  0.21177306  0.01365472  0.01528492     0.13500
C2156       C  0.21285193  0.03700489  0.03862768    -0.20900
C2157       C  0.17631700  0.02425987  0.05503319    -0.07400
C2158       C  0.13973424  0.98396068  0.04992189     0.13500
C2159       C  0.09942391  0.96658706  0.06668345    -0.24200
H2160       H  0.11048640  0.93080781  0.02223240     0.14700
H2161       H  0.24160890  0.06690917  0.04294401     0.14800
C2162       C  0.25057005  0.03008987  0.99736518    -0.24200
H2163       H  0.07477300  0.93428219  0.05980563     0.05000
H2164       H  0.08540433  0.98761499  0.06468617     0.08200
H2165       H  0.10648394  0.96402868  0.08849443     0.08200
H2166       H  0.24304685  0.03608359  0.97628116     0.08200
H2167       H  0.26108991  0.00613319  0.99678931     0.08200
H2168       H  0.27752256  0.06028403  0.00538377     0.05000
C2169       C  0.04521077  0.79299825  0.02470864    -0.20800
C2170       C  0.00541340  0.79007875  0.02714739    -0.07400
C2171       C  0.98636296  0.79754563  0.00412164     0.13500
C2172       C  0.01037753  0.81392266  0.98022360    -0.20900
C2173       C  0.05304747  0.82340413  0.97905872    -0.07400
C2174       C  0.06932122  0.80904136  0.00073782     0.13500
C2175       C  0.11285142  0.81290045  0.00003120    -0.24200
H2176       H  0.05887236  0.78596985  0.04244628     0.14700
H2177       H  0.99716814  0.82360009  0.96357784     0.14800
C2178       C  0.94254836  0.79269447  0.00564257    -0.24200
H2179       H  0.11754600  0.79591115  0.01750389     0.05000
H2180       H  0.13826025  0.84677123  0.00162581     0.08200
H2181       H  0.11646778  0.79855458  0.98080833     0.08200
H2182       H  0.94265897  0.81528644  0.02097443     0.08200
H2183       H  0.91881162  0.75957593  0.01151917     0.08200
H2184       H  0.93242356  0.79972493  0.98572930     0.05000
C2185       C  0.35039733  0.80031345  0.80418977    -0.20800
C2186       C  0.37588794  0.78622795  0.81720674    -0.07400
C2187       C  0.35814226  0.75911967  0.84056491     0.13500
C2188       C  0.31359914  0.73788824  0.84470787    -0.20900
C2189       C  0.28708193  0.74748635  0.82891628    -0.07400
C2190       C  0.30711169  0.78356875  0.81151007     0.13500
C2191       C  0.28378429  0.80540640  0.80105792    -0.24200
H2192       H  0.36407835  0.82420760  0.78820607     0.14700
H2193       H  0.29909604  0.71177163  0.85920087     0.14800
C2194       C  0.38491912  0.75066289  0.86071957    -0.24200
H2195       H  0.28555988  0.80806504  0.77844373     0.05000
H2196       H  0.29920745  0.83819594  0.80956416     0.08200
H2197       H  0.24998434  0.78880650  0.80757071     0.08200
H2198       H  0.40987857  0.78129869  0.86960631     0.08200
H2199       H  0.40024598  0.73416475  0.85090956     0.08200
H2200       H  0.36542640  0.73029405  0.87800155     0.05000
C2201       C  0.15104528  0.76910012  0.85170966    -0.20800
C2202       C  0.16084755  0.78061972  0.82388482    -0.07400
C2203       C  0.17329926  0.82269256  0.81602289     0.13500
C2204       C  0.17424840  0.85135750  0.83590789    -0.20900
C2205       C  0.16319539  0.83941702  0.86365031    -0.07400
C2206       C  0.15188586  0.79752616  0.87157159     0.13500
C2207       C  0.14062099  0.78201643  0.90076152    -0.24200
H2208       H  0.14237862  0.73716231  0.85814474     0.14700
H2209       H  0.18321663  0.88335803  0.82947319     0.14800
C2210       C  0.18455422  0.83741747  0.78674979    -0.24200
H2211       H  0.13369530  0.74867409  0.90311944     0.05000
H2212       H  0.11162167  0.78284865  0.90720052     0.08200
H2213       H  0.16771734  0.80221024  0.91463409     0.08200
H2214       H  0.15719766  0.81723970  0.77304837     0.08200
H2215       H  0.21297411  0.83544826  0.78038399     0.08200
H2216       H  0.19226338  0.87096571  0.78414413     0.05000
C2217       C  0.20825659  0.56640022  0.82958239    -0.20800
C2218       C  0.17356565  0.55911270  0.81278957    -0.07400
C2219       C  0.14805012  0.51871701  0.80099980     0.13500
C2220       C  0.16140449  0.48858399  0.80292209    -0.20900
C2221       C  0.20109361  0.49909633  0.81481676    -0.07400
C2222       C  0.22228466  0.53650623  0.83093805     0.13500
C2223       C  0.26043202  0.54604610  0.84848729    -0.24200
H2224       H  0.22683993  0.59711230  0.83949540     0.14700
H2225       H  0.14352581  0.45871880  0.79197742     0.14800
C2226       C  0.10816576  0.50833745  0.78509690    -0.24200
H2227       H  0.27241680  0.57647305  0.85988395     0.05000
H2228       H  0.28698050  0.54866323  0.83587792     0.08200
H2229       H  0.25130636  0.52012928  0.86370703     0.08200
H2230       H  0.11615927  0.52957945  0.76700231     0.08200
H2231       H  0.08584525  0.51265967  0.79852506     0.08200
H2232       H  0.09155407  0.47493077  0.77758214     0.05000
C2233       C  0.28581463  0.80817431  0.71134680    -0.20800
C2234       C  0.28718306  0.77416572  0.72411015    -0.07400
C2235       C  0.31501520  0.76042738  0.71401931     0.13500
C2236       C  0.33497740  0.77612821  0.68882594    -0.20900
C2237       C  0.32891415  0.80600656  0.67435363    -0.07400
C2238       C  0.30728971  0.82496466  0.68665752     0.13500
C2239       C  0.30449714  0.86067120  0.67297038    -0.24200
H2240       H  0.26547206  0.81947676  0.71967598     0.14700
H2241       H  0.35378264  0.76358742  0.67970447     0.14800
C2242       C  0.32130489  0.72696272  0.72829625    -0.24200
H2243       H  0.28439845  0.87027226  0.68476074     0.05000
H2244       H  0.29043082  0.85030384  0.65234548     0.08200
H2245       H  0.33690642  0.88884550  0.67098831     0.08200
H2246       H  0.29074517  0.69631390  0.72904739     0.08200
H2247       H  0.33350855  0.73769460  0.74945270     0.08200
H2248       H  0.34485337  0.72106058  0.71745633     0.05000
C2249       C  0.19515206  0.62815286  0.67796211    -0.20800
C2250       C  0.15902198  0.62324855  0.69184403    -0.07400
C2251       C  0.11806951  0.59275970  0.68217146     0.13500
C2252       C  0.11461850  0.56677158  0.65965914    -0.20900
C2253       C  0.15102175  0.56954541  0.64713644    -0.07400
C2254       C  0.19202090  0.60137202  0.65635516     0.13500
C2255       C  0.23315315  0.60741224  0.64426957    -0.24200
H2256       H  0.22659629  0.65209066  0.68502159     0.14700
H2257       H  0.08321165  0.54263122  0.65275469     0.14800
C2258       C  0.07809689  0.58589311  0.69624336    -0.24200
H2259       H  0.26155765  0.63604292  0.65269690     0.05000
H2260       H  0.23339821  0.61153961  0.62172301     0.08200
H2261       H  0.23707371  0.57966874  0.64924977     0.08200
H2262       H  0.07594934  0.61529813  0.69484957     0.08200
H2263       H  0.07853708  0.57753482  0.71813649     0.08200
H2264       H  0.04891504  0.55969164  0.68659038     0.05000
C2265       C  0.66193145  0.42439984  0.68600490    -0.20800
C2266       C  0.67924754  0.45671162  0.70582995    -0.07400
C2267       C  0.65058678  0.46463001  0.72109064     0.13500
C2268       C  0.60760695  0.43310186  0.72275028    -0.20900
C2269       C  0.59189541  0.39561710  0.70749369    -0.07400
C2270       C  0.61825350  0.39315335  0.68686133     0.13500
C2271       C  0.60170168  0.35578979  0.66765570    -0.24200
H2272       H  0.68312143  0.42062658  0.67211005     0.14700
H2273       H  0.58699616  0.43661678  0.73737632     0.14800
C2274       C  0.66542247  0.50408175  0.73811194    -0.24200
H2275       H  0.62672340  0.35852740  0.65326463     0.05000
H2276       H  0.57478398  0.35361481  0.65535708     0.08200
H2277       H  0.59065365  0.32631190  0.67973670     0.08200
H2278       H  0.69936691  0.52792441  0.73417345     0.08200
H2279       H  0.66123433  0.49490947  0.76006722     0.08200
H2280       H  0.64609074  0.51925990  0.73311099     0.05000
C2281       C  0.70770775  0.29372454  0.70485110    -0.20800
C2282       C  0.73561013  0.27788374  0.70790095    -0.07400
C2283       C  0.77946904  0.30692296  0.71236280     0.13500
C2284       C  0.79338203  0.35039361  0.71711894    -0.20900
C2285       C  0.76401491  0.36509468  0.71807906    -0.07400
C2286       C  0.72093343  0.33648272  0.71046987     0.13500
C2287       C  0.68816216  0.35033764  0.70849826    -0.24200
H2288       H  0.67407308  0.27148754  0.70157138     0.14700
H2289       H  0.82663478  0.37217831  0.72189739     0.14800
C2290       C  0.81105394  0.29132266  0.71313556    -0.24200
H2291       H  0.65731880  0.32489271  0.70011946     0.05000
H2292       H  0.70050900  0.37782511  0.69446422     0.08200
H2293       H  0.68149857  0.35897471  0.72898776     0.08200
H2294       H  0.81062857  0.27651108  0.69309986     0.08200
H2295       H  0.80268146  0.26720144  0.72954171     0.08200
H2296       H  0.84402102  0.31775597  0.71701308     0.05000
C2297       C  0.97725823  0.59456901  0.73077493    -0.20800
C2298       C  0.95117353  0.55393932  0.74147646    -0.07400
C2299       C  0.96913333  0.53782474  0.76067524     0.13500
C2300       C  0.01107949  0.56416873  0.77067701    -0.20900
C2301       C  0.03586224  0.60681939  0.76223442    -0.07400
C2302       C  0.01882328  0.62140358  0.74085535     0.13500
C2303       C  0.04260720  0.66579798  0.72890898    -0.24200
H2304       H  0.96334973  0.60708894  0.71635892     0.14700
H2305       H  0.02379055  0.55158691  0.78588441     0.14800
C2306       C  0.94421356  0.49289679  0.77123955    -0.24200
H2307       H  0.02440843  0.67044069  0.71215219     0.05000
H2308       H  0.07334394  0.67197780  0.71996583     0.08200
H2309       H  0.04816930  0.68972186  0.74499986     0.08200
H2310       H  0.96131844  0.47555818  0.76593954     0.08200
H2311       H  0.91173818  0.47518226  0.76214282     0.08200
H2312       H  0.94131187  0.49305587  0.79388015     0.05000
C2313       C  0.78988273  0.42714476  0.84556089    -0.20800
C2314       C  0.82526381  0.46399786  0.83546455    -0.07400
C2315       C  0.86352618  0.48382818  0.85088139     0.13500
C2316       C  0.86682497  0.46321369  0.87443055    -0.20900
C2317       C  0.83205163  0.42469670  0.88342458    -0.07400
C2318       C  0.79252319  0.40738795  0.86942882     0.13500
C2319       C  0.75355498  0.36662995  0.87831059    -0.24200
H2320       H  0.76001547  0.41306900  0.83426150     0.14700
H2321       H  0.89682294  0.47661152  0.88552468     0.14800
C2322       C  0.90104679  0.52569465  0.84227266    -0.24200
H2323       H  0.72598618  0.35753300  0.86432812     0.05000
H2324       H  0.74368827  0.37061990  0.89914631     0.08200
H2325       H  0.76054365  0.34010401  0.87829257     0.08200
H2326       H  0.89220461  0.55093609  0.84302795     0.08200
H2327       H  0.91072561  0.52333421  0.82108698     0.08200
H2328       H  0.92896500  0.53545196  0.85604953     0.05000
C2329       C  0.77680353  0.55230581  0.84471903    -0.20800
C2330       C  0.75696754  0.55462534  0.82054799    -0.07400
C2331       C  0.71938977  0.55719022  0.82241570     0.13500
C2332       C  0.69874986  0.54996387  0.84789027    -0.20900
C2333       C  0.71474301  0.53940750  0.87106137    -0.07400
C2334       C  0.75608038  0.54431570  0.86998344     0.13500
C2335       C  0.77807944  0.53849754  0.89461274    -0.24200
H2336       H  0.80643877  0.55167423  0.84348741     0.14700
H2337       H  0.66778808  0.54783832  0.84884655     0.14800
C2338       C  0.69935854  0.56526181  0.79782810    -0.24200
H2339       H  0.78241527  0.51054694  0.89135563     0.05000
H2340       H  0.76024868  0.53385900  0.91394525     0.08200
H2341       H  0.80992012  0.56732485  0.89731412     0.08200
H2342       H  0.66627191  0.53848972  0.79518266     0.08200
H2343       H  0.71787680  0.56936262  0.77884317     0.08200
H2344       H  0.69802719  0.59487621  0.80116081     0.05000
C2345       C  0.97228219  0.82517311  0.63850886    -0.20800
C2346       C  0.95576399  0.84051507  0.65886150    -0.07400
C2347       C  0.98491116  0.87586381  0.67461962     0.13500
C2348       C  0.02829029  0.89827823  0.66729497    -0.20900
C2349       C  0.04379671  0.88689774  0.64413623    -0.07400
C2350       C  0.01562126  0.84832277  0.63048782     0.13500
C2351       C  0.03050166  0.83185585  0.60709046    -0.24200
H2352       H  0.95030669  0.79721684  0.62688607     0.14700
H2353       H  0.04947985  0.92675710  0.67879441     0.14800
C2354       C  0.97086525  0.89143738  0.69884703    -0.24200
H2355       H  0.00490496  0.80022332  0.59986919     0.05000
H2356       H  0.05800694  0.82845979  0.61386098     0.08200
H2357       H  0.04006072  0.85398013  0.58939470     0.08200
H2358       H  0.98842783  0.89094241  0.71745706     0.08200
H2359       H  0.93625059  0.87109039  0.70297295     0.08200
H2360       H  0.97824281  0.92464819  0.69518343     0.05000
C2361       C  0.82785974  0.67981816  0.68927841    -0.20800
C2362       C  0.83210501  0.67793174  0.66061301    -0.07400
C2363       C  0.84378314  0.64880699  0.65004257     0.13500
C2364       C  0.84816623  0.62091049  0.66811562    -0.20900
C2365       C  0.84201778  0.62163372  0.69658985    -0.07400
C2366       C  0.83268040  0.65222307  0.70733140     0.13500
C2367       C  0.82535358  0.65445382  0.73757511    -0.24200
H2368       H  0.81992665  0.70265679  0.69770707     0.14700
H2369       H  0.85544584  0.59749622  0.65986039     0.14800
C2370       C  0.85052921  0.64587258  0.61981148    -0.24200
H2371       H  0.81749798  0.67973687  0.74230635     0.05000
H2372       H  0.85459893  0.66167876  0.74928328     0.08200
H2373       H  0.79827899  0.62363713  0.74454929     0.08200
H2374       H  0.87770607  0.67642683  0.61269207     0.08200
H2375       H  0.82120636  0.63868124  0.60819597     0.08200
H2376       H  0.85821142  0.62043160  0.61520520     0.05000
C2377       C  0.81095627  0.92538540  0.64256761    -0.20800
C2378       C  0.83682555  0.91040159  0.65364535    -0.07400
C2379       C  0.86894845  0.93657654  0.67287083     0.13500
C2380       C  0.88076034  0.97981164  0.67526500    -0.20900
C2381       C  0.86149135  0.99670707  0.65851969    -0.07400
C2382       C  0.82147741  0.96790243  0.64678130     0.13500
C2383       C  0.79168353  0.98319742  0.63750523    -0.24200
H2384       H  0.78372558  0.90454977  0.62991792     0.14700
H2385       H  0.90854458  0.00118202  0.68717541     0.14800
C2386       C  0.89369850  0.92057600  0.68879106    -0.24200
H2387       H  0.76145667  0.95658143  0.62924311     0.05000
H2388       H  0.80661288  0.00815475  0.62154867     0.08200
H2389       H  0.78358491  0.99686884  0.65533914     0.08200
H2390       H  0.91184995  0.91228479  0.67429564     0.08200
H2391       H  0.87162181  0.89226219  0.70105059     0.08200
H2392       H  0.91679350  0.94500249  0.70321173     0.05000
C2393       C  0.97311301  0.84126777  0.54900205    -0.20800
C2394       C  0.94154969  0.80019519  0.55688258    -0.07400
C2395       C  0.93860097  0.76442318  0.54290069     0.13500
C2396       C  0.96328664  0.77096252  0.51932745    -0.20900
C2397       C  0.99034538  0.81208331  0.50959297    -0.07400
C2398       C  0.99741782  0.84763958  0.52536851     0.13500
C2399       C  0.02996126  0.89232476  0.51697226    -0.24200
H2400       H  0.97656513  0.86877053  0.56005924     0.14700
H2401       H  0.95945006  0.74391287  0.50749804     0.14800
C2402       C  0.90956448  0.71939810  0.55240344    -0.24200
H2403       H  0.03210721  0.91626775  0.53208535     0.05000
H2404       H  0.02127237  0.90011812  0.49679087     0.08200
H2405       H  0.06192446  0.89513302  0.51554327     0.08200
H2406       H  0.87559562  0.71016939  0.54960477     0.08200
H2407       H  0.91620645  0.71662842  0.57431339     0.08200
H2408       H  0.91482642  0.69621812  0.54057737     0.05000
C2409       C  0.76967000  0.81051944  0.52182970    -0.20800
C2410       C  0.81055144  0.81766962  0.52795117    -0.07400
C2411       C  0.84356040  0.83722627  0.50837384     0.13500
C2412       C  0.83602374  0.85336078  0.48435856    -0.20900
C2413       C  0.79654740  0.85062757  0.47950959    -0.07400
C2414       C  0.76210576  0.82689704  0.49771578     0.13500
C2415       C  0.71825304  0.82105327  0.49301422    -0.24200
H2416       H  0.74444165  0.79476127  0.53678509     0.14700
H2417       H  0.86190237  0.87033602  0.46995154     0.14800
C2418       C  0.88697876  0.84166685  0.51272508    -0.24200
H2419       H  0.69578061  0.80215564  0.50965945     0.05000
H2420       H  0.70488494  0.80375937  0.47342006     0.08200
H2421       H  0.72002465  0.85252185  0.49231682     0.08200
H2422       H  0.90785658  0.85565020  0.49454062     0.08200
H2423       H  0.88340290  0.80983347  0.51647149     0.08200
H2424       H  0.90358418  0.86296676  0.53035406     0.05000
C2425       C  0.33109688  0.53444098  0.50912108    -0.20800
C2426       C  0.35552358  0.52205953  0.52485405    -0.07400
C2427       C  0.33340309  0.48630435  0.54224875     0.13500
C2428       C  0.28992370  0.47086156  0.54838300    -0.20900
C2429       C  0.26703987  0.48850467  0.53600778    -0.07400
C2430       C  0.28739262  0.51833966  0.51438997     0.13500
C2431       C  0.26485665  0.53692749  0.49853071    -0.24200
H2432       H  0.34743036  0.56071387  0.49495801     0.14700
H2433       H  0.27442810  0.44612228  0.56369374     0.14800
C2434       C  0.35547455  0.46471103  0.55506791    -0.24200
H2435       H  0.28587095  0.56057406  0.48303990     0.05000
H2436       H  0.25449333  0.55337851  0.51307805     0.08200
H2437       H  0.23691510  0.51131027  0.48750344     0.08200
H2438       H  0.38994391  0.48120087  0.55000290     0.08200
H2439       H  0.34071074  0.43157645  0.54723628     0.08200
H2440       H  0.35157909  0.46320967  0.57762802     0.05000
C2441       C  0.39656213  0.72242856  0.52409502    -0.20800
C2442       C  0.42276849  0.76414835  0.53309840    -0.07400
C2443       C  0.46607922  0.77819991  0.53916317     0.13500
C2444       C  0.47920944  0.74797978  0.54274271    -0.20900
C2445       C  0.45027632  0.70461908  0.53878257    -0.07400
C2446       C  0.40959356  0.69217642  0.52721982     0.13500
C2447       C  0.37775125  0.64655017  0.52096651    -0.24200
H2448       H  0.36356371  0.71189727  0.51888095     0.14700
H2449       H  0.51113553  0.75790221  0.55013395     0.14800
C2450       C  0.49748128  0.82486518  0.54327065    -0.24200
H2451       H  0.34942901  0.64332755  0.50981059     0.05000
H2452       H  0.36611790  0.62876957  0.54046975     0.08200
H2453       H  0.39278160  0.63278454  0.50779256     0.08200
H2454       H  0.48777756  0.83810353  0.56050048     0.08200
H2455       H  0.49904970  0.84249730  0.52425032     0.08200
H2456       H  0.53001831  0.83045980  0.54776515     0.05000
C2457       C  0.61717389  0.68383549  0.61538968    -0.20800
C2458       C  0.60983587  0.67958976  0.58671854    -0.07400
C2459       C  0.64565117  0.69936439  0.56927811     0.13500
C2460       C  0.68726805  0.72018079  0.58075305    -0.20900
C2461       C  0.69467405  0.72294618  0.60941115    -0.07400
C2462       C  0.65880563  0.70557927  0.62686725     0.13500
C2463       C  0.66434682  0.70760483  0.65755621    -0.24200
H2464       H  0.59003781  0.66828680  0.62900402     0.14700
H2465       H  0.71437076  0.73289483  0.56709310     0.14800
C2466       C  0.64018929  0.69627185  0.53856717    -0.24200
H2467       H  0.63313672  0.69193429  0.66831175     0.05000
H2468       H  0.68229520  0.74137034  0.66427954     0.08200
H2469       H  0.68223760  0.69137309  0.66373051     0.08200
H2470       H  0.62120825  0.71118316  0.53204147     0.08200
H2471       H  0.62340155  0.66233340  0.53214954     0.08200
H2472       H  0.67138857  0.71285220  0.52782533     0.05000
C2473       C  0.50701831  0.51128465  0.50347298    -0.20800
C2474       C  0.49092834  0.49947901  0.53045387    -0.07400
C2475       C  0.47095398  0.45596873  0.53766612     0.13500
C2476       C  0.46744853  0.42609477  0.51797675    -0.20900
C2477       C  0.48342987  0.43772528  0.49097907    -0.07400
C2478       C  0.50370145  0.48126848  0.48377963     0.13500
C2479       C  0.52192796  0.49660745  0.45556713    -0.24200
H2480       H  0.52223911  0.54447516  0.49750219     0.14700
H2481       H  0.45207058  0.39296499  0.52408229     0.14800
C2482       C  0.45355865  0.44030827  0.56604944    -0.24200
H2483       H  0.53619146  0.53163181  0.45351201     0.05000
H2484       H  0.49630367  0.48131381  0.43988359     0.08200
H2485       H  0.54745744  0.48883013  0.45143820     0.08200
H2486       H  0.42729729  0.44679185  0.57056527     0.08200
H2487       H  0.47941280  0.45626715  0.58152018     0.08200
H2488       H  0.44037892  0.40544044  0.56816168     0.05000
C2489       C  0.33832579  0.44614725  0.67170073    -0.20800
C2490       C  0.31014020  0.46024492  0.67933240    -0.07400
C2491       C  0.30303274  0.48668698  0.66147424     0.13500
C2492       C  0.32883566  0.50337618  0.63830224    -0.20900
C2493       C  0.36223208  0.49504477  0.63305593    -0.07400
C2494       C  0.36525354  0.46388854  0.64893975     0.13500
C2495       C  0.39688300  0.44959532  0.64237988    -0.24200
H2496       H  0.34121156  0.42329166  0.68450773     0.14700
H2497       H  0.32508641  0.52588816  0.62561397     0.14800
C2498       C  0.26864607  0.49773246  0.66702011    -0.24200
H2499       H  0.39190757  0.42238234  0.65546791     0.05000
H2500       H  0.42995173  0.47574122  0.64610638     0.08200
H2501       H  0.39317740  0.43921495  0.62061101     0.08200
H2502       H  0.27536213  0.51593353  0.68646213     0.08200
H2503       H  0.23723975  0.46805156  0.66854994     0.08200
H2504       H  0.26644090  0.51747539  0.65033613     0.05000
C2505       C  0.52228416  0.68327470  0.66927864    -0.20800
C2506       C  0.48209201  0.64838337  0.66353887    -0.07400
C2507       C  0.44765335  0.63760224  0.68172623     0.13500
C2508       C  0.45345184  0.66458659  0.70382486    -0.20900
C2509       C  0.49284104  0.70129025  0.70835269    -0.07400
C2510       C  0.52821928  0.71003829  0.69154440     0.13500
C2511       C  0.57157288  0.74887402  0.69579662    -0.24200
H2512       H  0.54847387  0.69114549  0.65532738     0.14700
H2513       H  0.42689920  0.65757411  0.71729422     0.14800
C2514       C  0.40487663  0.59767327  0.67810963    -0.24200
H2515       H  0.59467486  0.75153540  0.67984171     0.05000
H2516       H  0.58479248  0.74703489  0.71601805     0.08200
H2517       H  0.56897085  0.77810640  0.69484903     0.08200
H2518       H  0.40930803  0.56951545  0.67695463     0.08200
H2519       H  0.38872716  0.59956469  0.65921722     0.08200
H2520       H  0.38318920  0.59271960  0.69557534     0.05000
loop_ 
_geom_bond_atom_site_label_1 
_geom_bond_atom_site_label_2 
_geom_bond_distance 
_geom_bond_site_symmetry_2 
_ccdc_geom_bond_type 
O1          Cr19   1.969       .  S
O1            C9   1.259       .  A
O2          Cr19   1.981       .  S
O2            C3   1.257       .  A
C3            O4   1.260       .  A
C3         C2445   1.478       .  S
O4          Cr20   2.019       .  S
O5          Cr20   2.040       .  S
O5            C6   1.284       .  A
C6            O7   1.271       .  A
C6         C2458   1.508       .  S
O7          Cr21   2.006       .  S
O8          Cr21   1.983       .  S
O8            C9   1.264       .  A
C9         C2506   1.465       .  S
O10         Cr19   1.961       .  S
O10          C18   1.255       .  A
O11         Cr19   1.972       .  S
O11          C12   1.258       .  A
C12          O13   1.274       .  A
C12        C2426   1.487       .  S
O13         Cr20   2.040       .  S
O14         Cr20   1.982       .  S
O14          C15   1.254       .  A
C15          O16   1.263       .  A
C15        C2474   1.499       .  S
O16         Cr21   2.012       .  S
O17         Cr21   1.994       .  S
O17          C18   1.260       .  A
C18        C2493   1.480       .  S
Cr19         O22   1.766       .  S
Cr20         O22   1.775       .  S
Cr21         O22   1.770       .  S
O23         Cr41   1.973       .  S
O23          C31   1.261       .  A
O24         Cr41   1.995       .  S
O24          C25   1.261       .  A
C25          O26   1.260       .  A
C25        C2378   1.487       .  S
O26         Cr42   2.013       .  S
O27         Cr42   2.041       .  S
O27          C28   1.282       .  A
C28          O29   1.270       .  A
C28        C2461   1.509       .  S
O29         Cr43   2.004       .  S
O30         Cr43   1.976       .  S
O30          C31   1.261       .  A
C31        C2410   1.462       .  S
O32         Cr41   1.979       .  S
O32          C40   1.260       .  A
O33         Cr41   1.987       .  S
O33          C34   1.262       .  A
C34          O35   1.274       .  A
C34        C2346   1.490       .  S
O35         Cr42   2.036       .  S
O36         Cr42   1.988       .  S
O36          C37   1.257       .  A
C37          O38   1.259       .  A
C37        C2362   1.494       .  S
O38         Cr43   2.002       .  S
O39         Cr43   1.978       .  S
O39          C40   1.257       .  A
C40        C2394   1.479       .  S
Cr41         O44   1.770       .  S
Cr42         O44   1.772       .  S
Cr43         O44   1.772       .  S
O45         Cr63   2.023       .  S
O45          C53   1.272       .  A
O46         Cr63   1.946       .  S
O46          C47   1.251       .  A
C47          O48   1.278       .  A
C47        C2298   1.486       .  S
O48         Cr64   2.055       .  S
O49         Cr64   2.002       .  S
O49          C50   1.258       .  A
C50          O51   1.259       .  A
C50        C2285   1.497       .  S
O51         Cr65   2.003       .  S
O52         Cr65   1.955       .  S
O52          C53   1.265       .  A
C53        C2314   1.470       .  S
O54         Cr63   1.989       .  S
O54          C62   1.255       .  A
O55         Cr63   2.021       .  S
O55          C56   1.269       .  A
C56          O57   1.254       .  A
C56        C2365   1.486       .  S
O57         Cr64   1.955       .  S
O58         Cr64   2.069       .  S
O58          C59   1.284       .  A
C59          O60   1.258       .  A
C59        C2266   1.493       .  S
O60         Cr65   1.935       .  S
O61         Cr65   1.992       .  S
O61          C62   1.258       .  A
C62        C2330   1.470       .  S
Cr63         O66   1.778       .  S
Cr64         O66   1.781       .  S
Cr65         O66   1.759       .  S
O67         Cr85   2.000       .  S
O67          C75   1.266       .  A
O68         Cr85   1.987       .  S
O68          C69   1.263       .  A
C69          O70   1.283       .  A
C69        C2301   1.513       .  S
O70         Cr86   2.043       .  S
O71         Cr86   2.014       .  S
O71          C72   1.260       .  A
C72          O73   1.255       .  A
C72        C2218   1.470       .  S
O73         Cr87   1.972       .  S
O74         Cr87   1.979       .  S
O74          C75   1.264       .  A
C75        C2250   1.485       .  S
O76         Cr85   1.984       .  S
O76          C84   1.261       .  A
O77         Cr85   2.018       .  S
O77          C78   1.267       .  A
C78          O79   1.256       .  A
C78        C2202   1.492       .  S
O79         Cr86   1.978       .  S
O80         Cr86   2.039       .  S
O80          C81   1.274       .  A
C81          O82   1.263       .  A
C81        C2189   1.494       .  S
O82         Cr87   1.992       .  S
O83         Cr87   1.955       .  S
O83          C84   1.252       .  A
C84        C2234   1.463       .  S
Cr85         O88   1.765       .  S
Cr86         O88   1.765       .  S
Cr87         O88   1.759       .  S
O89        Cr107   1.973       .  S
O89          C97   1.262       .  A
O90        Cr107   1.997       .  S
O90          C91   1.262   1_565  A
C91          O92   1.261   1_545  A
C91        C2125   1.493       .  S
O92        Cr108   2.000       .  S
O93        Cr108   2.036       .  S
O93          C94   1.277       .  A
C94          O95   1.260       .  A
C94        C2141   1.496   1_565  S
O95        Cr109   1.974       .  S
O96        Cr109   2.005       .  S
O96          C97   1.267       .  A
C97        C2154   1.480   1_556  S
O98        Cr107   1.980       .  S
O98         C106   1.261       .  A
O99        Cr107   1.980       .  S
O99         C100   1.260       .  A
C100        O101   1.275       .  A
C100       C2106   1.483       .  S
O101       Cr108   2.035       .  S
O102       Cr108   1.995       .  S
O102        C103   1.260       .  A
C103        O104   1.264       .  A
C103       C2205   1.497       .  S
O104       Cr109   1.999       .  S
O105       Cr109   1.971       .  S
O105        C106   1.255       .  A
C106       C2173   1.484       .  S
Cr107       O110   1.765       .  S
Cr108       O110   1.770       .  S
Cr109       O110   1.772       .  S
O111       Cr129   1.962       .  S
O111        C119   1.262       .  A
O112       Cr129   2.003       .  S
O112        C113   1.262       .  A
C113        O114   1.257       .  A
C113       C2058   1.479       .  S
O114       Cr130   1.985       .  S
O115       Cr130   2.045       .  S
O115        C116   1.277       .  A
C116        O117   1.252       .  A
C116       C2138   1.481       .  S
O117       Cr131   1.944       .  S
O118       Cr131   2.010       .  S
O118        C119   1.265       .  A
C119       C2093   1.459       .  S
O120       Cr129   1.972       .  S
O120        C128   1.258       .  A
O121       Cr129   1.929       .  S
O121        C122   1.251       .  A
C122        O123   1.277       .  A
C122       C2026   1.475       .  S
O123       Cr130   2.054       .  S
O124       Cr130   1.965       .  S
O124        C125   1.255       .  A
C125        O126   1.266       .  A
C125       C2045   1.480   1_545  S
O126       Cr131   2.016       .  S
O127       Cr131   1.981       .  S
O127        C128   1.258       .  A
C128       C2077   1.453       .  S
Cr129       O132   1.756       .  S
Cr130       O132   1.780       .  S
Cr131       O132   1.775       .  S
O133       Cr151   1.978       .  S
O133        C141   1.260       .  A
O134       Cr151   2.004       .  S
O134        C135   1.271       .  A
C135        O136   1.280       .  A
C135       C1981   1.511       .  S
O136       Cr152   2.033       .  S
O137       Cr152   2.003       .  S
O137        C138   1.258       .  A
C138        O139   1.259       .  A
C138       C1965   1.473       .  S
O139       Cr153   1.987       .  S
O140       Cr153   1.981       .  S
O140        C141   1.261       .  A
C141       C1994   1.461       .  S
O142       Cr151   1.994       .  S
O142        C150   1.262       .  A
O143       Cr151   2.009       .  S
O143        C144   1.263       .  A
C144        O145   1.255       .  A
C144       C1946   1.484       .  S
O145       Cr152   1.987       .  S
O146       Cr152   2.034       .  S
O146        C147   1.275       .  A
C147        O148   1.261       .  A
C147       C1930   1.484       .  S
O148       Cr153   1.987       .  S
O149       Cr153   1.968       .  S
O149        C150   1.258       .  A
C150       C2013   1.477       .  S
Cr151       O154   1.766       .  S
Cr152       O154   1.768       .  S
Cr153       O154   1.766       .  S
O155       Cr173   1.996       .  S
O155        C163   1.264       .  A
O156       Cr173   1.996       .  S
O156        C157   1.267       .  A
C157        O158   1.282       .  A
C157       C1978   1.496       .  S
O158       Cr174   2.039       .  S
O159       Cr174   2.018       .  S
O159        C160   1.262       .  A
C160        O161   1.261       .  A
C160       C1885   1.486       .  S
O161       Cr175   1.992       .  S
O162       Cr175   1.968       .  S
O162        C163   1.261       .  A
C163       C1914   1.476       .  S
O164       Cr173   1.998       .  S
O164        C172   1.263       .  A
O165       Cr173   2.025       .  S
O165        C166   1.268       .  A
C166        O167   1.255       .  A
C166       C2477   1.501       .  S
O167       Cr174   1.976       .  S
O168       Cr174   2.047       .  S
O168        C169   1.276       .  A
C169        O170   1.258       .  A
C169       C1866   1.493       .  S
O170       Cr175   1.978       .  S
O171       Cr175   1.958       .  S
O171        C172   1.252       .  A
C172       C1898   1.478       .  S
Cr173       O176   1.774       .  S
Cr174       O176   1.762       .  S
Cr175       O176   1.760       .  S
O177       Cr195   1.986       .  S
O177        C185   1.263       .  A
O178       Cr195   1.989       .  S
O178        C179   1.258       .  A
C179        O180   1.259       .  A
C179       C1802   1.483       .  S
O180       Cr196   2.004       .  S
O181       Cr196   2.032       .  S
O181        C182   1.277       .  A
C182        O183   1.268       .  A
C182       C1818   1.509       .  S
O183       Cr197   1.993       .  S
O184       Cr197   1.986       .  S
O184        C185   1.263       .  A
C185       C1853   1.467       .  S
O186       Cr195   1.972       .  S
O186        C194   1.257       .  A
O187       Cr195   1.995       .  S
O187        C188   1.266       .  A
C188        O189   1.272       .  A
C188       C1773   1.483       .  S
O189       Cr196   2.019       .  S
O190       Cr196   1.996       .  S
O190        C191   1.258       .  A
C191        O192   1.264       .  A
C191       C1786   1.497       .  S
O192       Cr197   2.009       .  S
O193       Cr197   1.981       .  S
O193        C194   1.261       .  A
C194       C1837   1.471       .  S
Cr195       O198   1.766       .  S
Cr196       O198   1.771       .  S
Cr197       O198   1.769       .  S
O199       Cr217   1.968       .  S
O199        C207   1.262       .  A
O200       Cr217   2.007       .  S
O200        C201   1.254       .  A
C201        O202   1.249       .  A
C201       C1722   1.502       .  S
O202       Cr218   1.992       .  S
O203       Cr218   2.029       .  S
O203        C204   1.281       .  A
C204        O205   1.271       .  A
C204       C1821   1.492       .  S
O205       Cr219   2.004       .  S
O206       Cr219   1.981       .  S
O206        C207   1.262       .  A
C207       C1754   1.463       .  S
O208       Cr217   1.993       .  S
O208        C216   1.262       .  A
O209       Cr217   1.998       .  S
O209        C210   1.274       .  A
C210        O211   1.283       .  A
C210       C1709   1.481       .  S
O211       Cr218   2.020       .  S
O212       Cr218   1.995       .  S
O212        C213   1.252       .  A
C213        O214   1.257       .  A
C213       C1949   1.484       .  S
O214       Cr219   2.006       .  S
O215       Cr219   1.980       .  S
O215        C216   1.257       .  A
C216       C1741   1.492       .  S
Cr217       O220   1.773       .  S
Cr218       O220   1.774       .  S
Cr219       O220   1.781       .  S
O221       Cr239   2.010       .  S
O221        C229   1.268   1_545  A
O222       Cr239   1.938   1_565  S
O222        C223   1.248       .  A
C223        O224   1.280       .  A
C223       C1658   1.483       .  S
O224       Cr240   2.062       .  S
O225       Cr240   2.003       .  S
O225        C226   1.258       .  A
C226        O227   1.264       .  A
C226       C1642   1.502       .  S
O227       Cr241   2.019   1_565  S
O228       Cr241   1.961   1_565  S
O228        C229   1.263       .  A
C229       C1690   1.460       .  S
O230       Cr239   1.987       .  S
O230        C238   1.258       .  A
O231       Cr239   2.026       .  S
O231        C232   1.269       .  A
C232        O233   1.253       .  A
C232       C1789   1.489       .  S
O233       Cr240   1.960   1_545  S
O234       Cr240   2.074   1_545  S
O234        C235   1.284       .  A
C235        O236   1.255       .  A
C235       C1626   1.495       .  S
O236       Cr241   1.931       .  S
O237       Cr241   2.001       .  S
O237        C238   1.262       .  A
C238       C1677   1.472       .  S
Cr239       O242   1.774       .  S
Cr240       O242   1.779   1_565  S
Cr241       O242   1.759       .  S
O243       Cr261   2.004       .  S
O243        C251   1.267       .  A
O244       Cr261   1.988       .  S
O244        C245   1.268       .  A
C245        O246   1.292       .  A
C245       C1661   1.515       .  S
O246       Cr262   2.046       .  S
O247       Cr262   1.996       .  S
O247        C248   1.246       .  A
C248        O249   1.251       .  A
C248       C1578   1.510       .  S
O249       Cr263   2.008       .  S
O250       Cr263   1.958       .  S
O250        C251   1.261       .  A
C251       C1594   1.459       .  S
O252       Cr261   1.950       .  S
O252        C260   1.249       .  A
O253       Cr261   1.998       .  S
O253        C254   1.251       .  A
C254        O255   1.249       .  A
C254       C2042   1.497       .  S
O255       Cr262   1.995       .  S
O256       Cr262   2.028       .  S
O256        C257   1.292       .  A
C257        O258   1.280       .  A
C257       C1565   1.479       .  S
O258       Cr263   1.990       .  S
O259       Cr263   1.995       .  S
O259        C260   1.260       .  A
C260       C1610   1.469       .  S
Cr261       O264   1.767       .  S
Cr262       O264   1.758       .  S
Cr263       O264   1.762       .  S
O265       Cr283   2.025       .  S
O265        C273   1.274       .  A
O266       Cr283   1.937       .  S
O266        C267   1.250       .  A
C267        O268   1.279       .  A
C267       C1533   1.489       .  S
O268       Cr284   2.058       .  S
O269       Cr284   1.991       .  S
O269        C270   1.255       .  A
C270        O271   1.263       .  A
C270       C1514   1.492       .  S
O271       Cr285   2.022       .  S
O272       Cr285   1.957       .  S
O272        C273   1.267       .  A
C273       C1834   1.469       .  S
O274       Cr283   1.975       .  S
O274        C282   1.250       .  A
O275       Cr283   2.026       .  S
O275        C276   1.268       .  A
C276        O277   1.253       .  A
C276       C1498   1.494   1_545  S
O277       Cr284   1.950       .  S
O278       Cr284   2.072       .  S
O278        C279   1.285       .  A
C279        O280   1.254       .  A
C279       C1882   1.482       .  S
O280       Cr285   1.929       .  S
O281       Cr285   1.996       .  S
O281        C282   1.258       .  A
C282       C1549   1.461       .  S
Cr283       O286   1.773       .  S
Cr284       O286   1.774       .  S
Cr285       O286   1.763       .  S
O287       Cr305   1.993       .  S
O287        C295   1.264       .  A
O288       Cr305   1.997       .  S
O288        C289   1.274       .  A
C289        O290   1.288       .  A
C289       C1530   1.507   1_565  S
O290       Cr306   2.035       .  S
O291       Cr306   1.991       .  S
O291        C292   1.246   1_565  A
C292        O293   1.250       .  A
C292       C1933   1.501       .  S
O293       Cr307   2.002   1_545  S
O294       Cr307   1.966       .  S
O294        C295   1.261       .  A
C295       C1482   1.465       .  S
O296       Cr305   1.957       .  S
O296        C304   1.251       .  A
O297       Cr305   1.988       .  S
O297        C298   1.248       .  A
C298        O299   1.252       .  A
C298       C1466   1.498       .  S
O299       Cr306   2.002       .  S
O300       Cr306   2.025       .  S
O300        C301   1.291       .  A
C301        O302   1.280       .  A
C301       C1450   1.483       .  S
O302       Cr307   2.002       .  S
O303       Cr307   1.979       .  S
O303        C304   1.261       .  A
C304       C2413   1.471       .  S
Cr305       O308   1.770       .  S
Cr306       O308   1.763       .  S
Cr307       O308   1.759       .  S
O309       Cr327   2.002       .  S
O309        C317   1.266       .  A
O310       Cr327   1.945       .  S
O310        C311   1.250       .  A
C311        O312   1.279       .  A
C311       C1402   1.486       .  S
O312       Cr328   2.057       .  S
O313       Cr328   1.989       .  S
O313        C314   1.255       .  A
C314        O315   1.265       .  A
C314       C1562   1.489       .  S
O315       Cr329   2.019       .  S
O316       Cr329   1.971       .  S
O316        C317   1.266       .  A
C317       C1434   1.463       .  S
O318       Cr327   1.977       .  S
O318        C326   1.255       .  A
O319       Cr327   2.016       .  S
O319        C320   1.265       .  A
C320        O321   1.252       .  A
C320       C1421   1.479       .  S
O321       Cr328   1.951       .  S
O322       Cr328   2.068       .  S
O322        C323   1.282       .  A
C323        O324   1.255       .  A
C323       C1386   1.491       .  S
O324       Cr329   1.937       .  S
O325       Cr329   1.988       .  S
O325        C326   1.260       .  A
C326       C1757   1.459       .  S
Cr327       O330   1.774       .  S
Cr328       O330   1.776       .  S
Cr329       O330   1.763       .  S
O331       Cr349   1.996       .  S
O331        C339   1.262       .  A
O332       Cr349   2.001       .  S
O332        C333   1.276       .  A
C333        O334   1.296   1_655  A
C333       C1405   1.517   1_655  S
O334       Cr350   2.041   1_455  S
O335       Cr350   1.998   1_455  S
O335        C336   1.246       .  A
C336        O337   1.252       .  A
C336       C1357   1.509       .  S
O337       Cr351   2.009   1_455  S
O338       Cr351   1.964   1_455  S
O338        C339   1.260   1_455  A
C339       C2170   1.460   1_655  S
O340       Cr349   1.951       .  S
O340        C348   1.252       .  A
O341       Cr349   1.990       .  S
O341        C342   1.247       .  A
C342        O343   1.247       .  A
C342       C1338   1.498       .  S
O343       Cr350   2.002       .  S
O344       Cr350   2.042       .  S
O344        C345   1.296       .  A
C345        O346   1.281       .  A
C345       C1645   1.488       .  S
O346       Cr351   1.989       .  S
O347       Cr351   1.997       .  S
O347        C348   1.262       .  A
C348       C1373   1.473       .  S
Cr349       O352   1.760       .  S
Cr350       O352   1.753       .  S
Cr351       O352   1.758       .  S
O353       Cr371   1.986       .  S
O353        C361   1.267       .  A
O354       Cr371   1.997       .  S
O354        C355   1.263       .  A
C355        O356   1.265       .  A
C355       C1293   1.509       .  S
O356       Cr372   2.029       .  S
O357       Cr372   2.037       .  S
O357        C358   1.275       .  A
C358        O359   1.262       .  A
C358       C1306   1.507       .  S
O359       Cr373   1.983       .  S
O360       Cr373   1.984       .  S
O360        C361   1.263       .  A
C361       C1901   1.476       .  S
O362       Cr371   1.985       .  S
O362        C370   1.259       .  A
O363       Cr371   1.991       .  S
O363        C364   1.264       .  A
C364        O365   1.269       .  A
C364       C1805   1.477       .  S
O365       Cr372   2.014       .  S
O366       Cr372   2.018       .  S
O366        C367   1.267       .  A
C367        O368   1.263       .  A
C367       C1341   1.496       .  S
O368       Cr373   1.991       .  S
O369       Cr373   1.981       .  S
O369        C370   1.259       .  A
C370       C1322   1.487       .  S
Cr371       O374   1.762       .  S
Cr372       O374   1.771       .  S
Cr373       O374   1.772       .  S
O375       Cr393   1.978       .  S
O375        C383   1.262       .  A
O376       Cr393   1.984       .  S
O376        C377   1.259       .  A
C377        O378   1.266       .  A
C377       C1706   1.491       .  S
O378       Cr394   2.024       .  S
O379       Cr394   2.021       .  S
O379        C380   1.272       .  A
C380        O381   1.265       .  A
C380       C1309   1.484       .  S
O381       Cr395   1.989       .  S
O382       Cr395   1.980       .  S
O382        C383   1.261       .  A
C383       C1274   1.470       .  S
O384       Cr393   1.974       .  S
O384        C392   1.258       .  A
O385       Cr393   1.992       .  S
O385        C386   1.264       .  A
C386        O387   1.267       .  A
C386       C1261   1.478       .  S
O387       Cr394   2.013       .  S
O388       Cr394   2.005       .  S
O388        C389   1.265       .  A
C389        O390   1.260       .  A
C389       C1469   1.496       .  S
O390       Cr395   1.986       .  S
O391       Cr395   1.988       .  S
O391        C392   1.261       .  A
C392       C1597   1.488       .  S
Cr393       O396   1.763       .  S
Cr394       O396   1.772       .  S
Cr395       O396   1.769       .  S
O397       Cr415   1.967       .  S
O397        C405   1.261       .  A
O398       Cr415   1.993       .  S
O398        C399   1.247       .  A
C399        O400   1.249       .  A
C399       C1210   1.502       .  S
O400       Cr416   2.003       .  S
O401       Cr416   2.023       .  S
O401        C402   1.287       .  A
C402        O403   1.276   1_655  A
C402       C1226   1.483       .  S
O403       Cr417   1.995       .  S
O404       Cr417   2.004   1_655  S
O404        C405   1.266       .  A
C405       C1674   1.479       .  S
O406       Cr415   1.972   1_455  S
O406        C414   1.256       .  A
O407       Cr415   2.011   1_455  S
O407        C408   1.281       .  A
C408        O409   1.285       .  A
C408       C2122   1.480       .  S
O409       Cr416   2.009   1_455  S
O410       Cr416   1.998   1_455  S
O410        C411   1.251       .  A
C411        O412   1.253       .  A
C411       C1194   1.499       .  S
O412       Cr417   2.008       .  S
O413       Cr417   1.962       .  S
O413        C414   1.256       .  A
C414       C1245   1.477       .  S
Cr415       O418   1.762   1_655  S
Cr416       O418   1.766   1_655  S
Cr417       O418   1.769       .  S
O419       Cr437   1.987       .  S
O419        C427   1.264       .  A
O420       Cr437   1.982       .  S
O420        C421   1.256       .  A
C421        O422   1.257       .  A
C421       C2029   1.473       .  S
O422       Cr438   2.004       .  S
O423       Cr438   2.032       .  S
O423        C424   1.276       .  A
C424        O425   1.265       .  A
C424       C1229   1.508       .  S
O425       Cr439   1.987       .  S
O426       Cr439   1.975       .  S
O426        C427   1.259       .  A
C427       C1178   1.458       .  S
O428       Cr437   1.963       .  S
O428        C436   1.255       .  A
O429       Cr437   1.994       .  S
O429        C430   1.267       .  A
C430        O431   1.272       .  A
C430       C1162   1.477       .  S
O431       Cr438   2.012       .  S
O432       Cr438   1.991       .  S
O432        C433   1.262       .  A
C433        O434   1.261       .  A
C433       C1418   1.485       .  S
O434       Cr439   1.992       .  S
O435       Cr439   1.991       .  S
O435        C436   1.261       .  A
C436       C2317   1.468       .  S
Cr437       O440   1.754       .  S
Cr438       O440   1.773       .  S
Cr439       O440   1.771       .  S
O441       Cr459   2.022       .  S
O441        C449   1.271       .  A
O442       Cr459   1.949       .  S
O442        C443   1.252       .  A
C443        O444   1.276       .  A
C443       C1133   1.484       .  S
O444       Cr460   2.044       .  S
O445       Cr460   2.004       .  S
O445        C446   1.258       .  A
C446        O447   1.261       .  A
C446       C1114   1.498       .  S
O447       Cr461   1.994       .  S
O448       Cr461   1.963       .  S
O448        C449   1.265       .  A
C449       C2490   1.466       .  S
O450       Cr459   1.988       .  S
O450        C458   1.256       .  A
O451       Cr459   2.023       .  S
O451        C452   1.269       .  A
C452        O453   1.256       .  A
C452       C1197   1.506       .  S
O453       Cr460   1.973       .  S
O454       Cr460   2.053       .  S
O454        C455   1.279       .  A
C455        O456   1.259       .  A
C455       C2221   1.487       .  S
O456       Cr461   1.944       .  S
O457       Cr461   1.975       .  S
O457        C458   1.256       .  A
C458       C1146   1.462       .  S
Cr459       O462   1.781       .  S
Cr460       O462   1.785       .  S
Cr461       O462   1.760       .  S
O463       Cr481   1.988       .  S
O463        C471   1.261       .  A
O464       Cr481   1.979       .  S
O464        C465   1.258       .  A
C465        O466   1.284       .  A
C465       C1130   1.514       .  S
O466       Cr482   2.057       .  S
O467       Cr482   2.017       .  S
O467        C468   1.260       .  A
C468        O469   1.258       .  A
C468       C2269   1.484       .  S
O469       Cr483   1.983       .  S
O470       Cr483   1.975       .  S
O470        C471   1.259       .  A
C471       C1098   1.464       .  S
O472       Cr481   1.964       .  S
O472        C480   1.255       .  A
O473       Cr481   2.013       .  S
O473        C474   1.266       .  A
C474        O475   1.260       .  A
C474       C1085   1.501       .  S
O475       Cr482   1.989       .  S
O476       Cr482   2.039       .  S
O476        C477   1.275       .  A
C477        O478   1.260       .  A
C477       C1069   1.489       .  S
O478       Cr483   1.985       .  S
O479       Cr483   1.981       .  S
O479        C480   1.260       .  A
C480       C2090   1.473       .  S
Cr481       O484   1.765       .  S
Cr482       O484   1.766       .  S
Cr483       O484   1.770       .  S
O485       Cr503   1.965       .  S
O485        C493   1.261       .  A
O486       Cr503   2.004       .  S
O486        C487   1.251       .  A
C487        O488   1.247       .  A
C487       C2349   1.504       .  S
O488       Cr504   1.989       .  S
O489       Cr504   2.033       .  S
O489        C490   1.286       .  A
C490        O491   1.272       .  A
C490       C1037   1.504       .  S
O491       Cr505   1.993   1_565  S
O492       Cr505   1.993   1_565  S
O492        C493   1.263       .  A
C493       C1050   1.466       .  S
O494       Cr503   1.981   1_545  S
O494        C502   1.260       .  A
O495       Cr503   1.998   1_545  S
O495        C496   1.279       .  A
C496        O497   1.290       .  A
C496       C1018   1.482       .  S
O497       Cr504   2.026   1_545  S
O498       Cr504   2.002   1_545  S
O498        C499   1.252       .  A
C499        O500   1.252       .  A
C499       C1082   1.500       .  S
O500       Cr505   1.992       .  S
O501       Cr505   1.961       .  S
O501        C502   1.253       .  A
C502       C1997   1.470       .  S
Cr503       O506   1.765   1_565  S
Cr504       O506   1.768   1_565  S
Cr505       O506   1.776       .  S
O507       Cr525   1.961       .  S
O507        C515   1.266       .  A
O508       Cr525   2.006       .  S
O508        C509   1.260       .  A
C509        O510   1.259       .  A
C509        C986   1.484       .  S
O510       Cr526   1.996       .  S
O511       Cr526   2.044       .  S
O511        C512   1.275       .  A
C512        O513   1.255       .  A
C512       C1034   1.490       .  S
O513       Cr527   1.959       .  S
O514       Cr527   2.005       .  S
O514        C515   1.268       .  A
C515       C2237   1.458       .  S
O516       Cr525   1.979       .  S
O516        C524   1.256       .  A
O517       Cr525   1.939       .  S
O517        C518   1.256       .  A
C518        O519   1.276       .  A
C518       C2442   1.468       .  S
O519       Cr526   2.038       .  S
O520       Cr526   1.967       .  S
O520        C521   1.255       .  A
C521        O522   1.266       .  A
C521       C1501   1.494       .  S
O522       Cr527   2.012       .  S
O523       Cr527   1.996       .  S
O523        C524   1.259       .  A
C524       C1002   1.471       .  S
Cr525       O528   1.763       .  S
Cr526       O528   1.785       .  S
Cr527       O528   1.780       .  S
O529       Cr547   2.016       .  S
O529        C537   1.269       .  A
O530       Cr547   1.989       .  S
O530        C531   1.274       .  A
C531        O532   1.291       .  A
C531        C973   1.504       .  S
O532       Cr548   2.035       .  S
O533       Cr548   1.973       .  S
O533        C534   1.241       .  A
C534        O535   1.257       .  A
C534       C2186   1.511       .  S
O535       Cr549   2.025       .  S
O536       Cr549   1.971       .  S
O536        C537   1.262       .  A
C537       C1005   1.478       .  S
O538       Cr547   1.944       .  S
O538        C546   1.248       .  A
O539       Cr547   2.003       .  S
O539        C540   1.249       .  A
C540        O541   1.249       .  A
C540        C957   1.508       .  S
O541       Cr548   1.998       .  S
O542       Cr548   2.045       .  S
O542        C543   1.299       .  A
C543        O544   1.280       .  A
C543       C1117   1.490       .  S
O544       Cr549   1.977       .  S
O545       Cr549   2.005       .  S
O545        C546   1.264       .  A
C546       C2509   1.465       .  S
Cr547       O550   1.764       .  S
Cr548       O550   1.749       .  S
Cr549       O550   1.762       .  S
O551       Cr569   2.014       .  S
O551        C559   1.277       .  A
O552       Cr569   1.947       .  S
O552        C553   1.254       .  A
C553        O554   1.276       .  A
C553        C970   1.485       .  S
O554       Cr570   2.039       .  S
O555       Cr570   1.997       .  S
O555        C556   1.250       .  A
C556        O557   1.252       .  A
C556       C1066   1.489       .  S
O557       Cr571   2.004       .  S
O558       Cr571   1.968       .  S
O558        C559   1.272       .  A
C559       C2074   1.471       .  S
O560       Cr569   1.984       .  S
O560        C568   1.250       .  A
O561       Cr569   1.990       .  S
O561        C562   1.260       .  A
C562        O563   1.256       .  A
C562        C941   1.494       .  S
O563       Cr570   1.980       .  S
O564       Cr570   2.067       .  S
O564        C565   1.290       .  A
C565        O566   1.264       .  A
C565       C2282   1.473       .  S
O566       Cr571   1.942       .  S
O567       Cr571   1.985       .  S
O567        C568   1.252       .  A
C568       C1181   1.461       .  S
Cr569       O572   1.779       .  S
Cr570       O572   1.776       .  S
Cr571       O572   1.769       .  S
O573       Cr591   1.972       .  S
O573        C581   1.263       .  A
O574       Cr591   2.008       .  S
O574        C575   1.249       .  A
C575        O576   1.246       .  A
C575       C2429   1.509       .  S
O576       Cr592   1.995       .  S
O577       Cr592   2.033       .  S
O577        C578   1.292       .  A
C578        O579   1.280       .  A
C578        C922   1.504       .  S
O579       Cr593   2.004       .  S
O580       Cr593   1.998       .  S
O580        C581   1.266       .  A
C581       C1149   1.477       .  S
O582       Cr591   1.980       .  S
O582        C590   1.257       .  A
O583       Cr591   2.017       .  S
O583        C584   1.286       .  A
C584        O585   1.293       .  A
C584        C989   1.493       .  S
O585       Cr592   2.027       .  S
O586       Cr592   1.991       .  S
O586        C587   1.247       .  A
C587        O588   1.256       .  A
C587        C909   1.507       .  S
O588       Cr593   2.013       .  S
O589       Cr593   1.986       .  S
O589        C590   1.260       .  A
C590       C2253   1.491       .  S
Cr591       O594   1.757       .  S
Cr592       O594   1.756       .  S
Cr593       O594   1.766       .  S
O595       Cr613   1.966       .  S
O595        C603   1.269       .  A
O596       Cr613   2.010       .  S
O596        C597   1.257   1_655  A
C597        O598   1.255       .  A
C597       C1021   1.497       .  S
O598       Cr614   2.003   1_455  S
O599       Cr614   2.039       .  S
O599        C600   1.276       .  A
C600        O601   1.256       .  A
C600        C925   1.495   1_655  S
O601       Cr615   1.958       .  S
O602       Cr615   2.014       .  S
O602        C603   1.273       .  A
C603       C2010   1.465       .  S
O604       Cr613   1.986       .  S
O604        C612   1.254       .  A
O605       Cr613   1.934       .  S
O605        C606   1.260       .  A
C606        O607   1.284       .  A
C606       C2381   1.484   1_545  S
O607       Cr614   2.064       .  S
O608       Cr614   1.971       .  S
O608        C609   1.255       .  A
C609        O610   1.263       .  A
C609        C938   1.489       .  S
O610       Cr615   2.002       .  S
O611       Cr615   1.987       .  S
O611        C612   1.253       .  A
C612       C1485   1.467       .  S
Cr613       O616   1.772       .  S
Cr614       O616   1.783       .  S
Cr615       O616   1.782       .  S
O617       Cr635   1.963       .  S
O617        C625   1.260       .  A
O618       Cr635   2.001       .  S
O618        C619   1.254       .  A
C619        O620   1.248       .  A
C619       C1165   1.494       .  S
O620       Cr636   1.987       .  S
O621       Cr636   2.035       .  S
O621        C622   1.282       .  A
C622        O623   1.267       .  A
C622        C874   1.488       .  S
O623       Cr637   1.985       .  S
O624       Cr637   1.998       .  S
O624        C625   1.265       .  A
C625       C2333   1.475       .  S
O626       Cr635   1.986       .  S
O626        C634   1.260       .  A
O627       Cr635   1.989       .  S
O627        C628   1.273       .  A
C628        O629   1.283       .  A
C628       C2061   1.486       .  S
O629       Cr636   2.029       .  S
O630       Cr636   1.987       .  S
O630        C631   1.251       .  A
C631        O632   1.262       .  A
C631        C893   1.503       .  S
O632       Cr637   2.017       .  S
O633       Cr637   1.972       .  S
O633        C634   1.256       .  A
C634       C1101   1.470       .  S
Cr635       O638   1.769       .  S
Cr636       O638   1.771       .  S
Cr637       O638   1.781       .  S
O639       Cr657   1.980       .  S
O639        C647   1.262       .  A
O640       Cr657   1.990       .  S
O640        C641   1.262       .  A
C641        O642   1.266       .  A
C641       C2109   1.494       .  S
O642       Cr658   2.027       .  S
O643       Cr658   2.047       .  S
O643        C644   1.277       .  A
C644        O645   1.262       .  A
C644        C877   1.511       .  S
O645       Cr659   1.982       .  S
O646       Cr659   1.991       .  S
O646        C647   1.265       .  A
C647       C1370   1.477   1_556  S
O648       Cr657   1.976       .  S
O648        C656   1.260       .  A
O649       Cr657   1.985       .  S
O649        C650   1.259       .  A
C650        O651   1.273       .  A
C650       C1213   1.484       .  S
O651       Cr658   2.033       .  S
O652       Cr658   2.023       .  S
O652        C653   1.268       .  A
C653        O654   1.262       .  A
C653        C954   1.508       .  S
O654       Cr659   1.992       .  S
O655       Cr659   1.976       .  S
O655        C656   1.258       .  A
C656       C1693   1.469       .  S
Cr657       O660   1.764       .  S
Cr658       O660   1.768       .  S
Cr659       O660   1.768       .  S
O661       Cr679   2.002       .  S
O661        C669   1.267       .  A
O662       Cr679   1.972       .  S
O662        C663   1.258       .  A
C663        O664   1.282       .  A
C663        C861   1.518       .  S
O664       Cr680   2.069       .  S
O665       Cr680   2.004       .  S
O665        C666   1.257       .  A
C666        O667   1.260       .  A
C666       C1389   1.486       .  S
O667       Cr681   1.996       .  S
O668       Cr681   1.984       .  S
O668        C669   1.263       .  A
C669       C1738   1.475       .  S
O670       Cr679   1.971       .  S
O670        C678   1.258       .  A
O671       Cr679   2.010       .  S
O671        C672   1.269       .  A
C672        O673   1.260       .  A
C672        C890   1.504       .  S
O673       Cr680   2.002       .  S
O674       Cr680   2.044       .  S
O674        C675   1.279       .  A
C675        O676   1.264       .  A
C675       C1581   1.495       .  S
O676       Cr681   1.987       .  S
O677       Cr681   1.967       .  S
O677        C678   1.256       .  A
C678       C1277   1.479       .  S
Cr679       O682   1.772       .  S
Cr680       O682   1.768       .  S
Cr681       O682   1.765       .  S
O683       Cr701   1.982       .  S
O683        C691   1.261       .  A
O684       Cr701   2.003       .  S
O684        C685   1.270       .  A
C685        O686   1.278       .  A
C685        C858   1.500       .  S
O686       Cr702   2.036       .  S
O687       Cr702   2.006       .  S
O687        C688   1.258       .  A
C688        O689   1.261       .  A
C688       C1629   1.482       .  S
O689       Cr703   1.990       .  S
O690       Cr703   1.965       .  S
O690        C691   1.261       .  A
C691       C1242   1.477       .  S
O692       Cr701   1.989       .  S
O692        C700   1.262       .  A
O693       Cr701   2.000       .  S
O693        C694   1.261       .  A
C694        O695   1.254       .  A
C694        C842   1.492       .  S
O695       Cr702   1.989       .  S
O696       Cr702   2.039       .  S
O696        C697   1.276       .  A
C697        O698   1.262       .  A
C697       C1354   1.492       .  S
O698       Cr703   1.988       .  S
O699       Cr703   1.978       .  S
O699        C700   1.260       .  A
C700       C2157   1.492       .  S
Cr701       O704   1.774       .  S
Cr702       O704   1.772       .  S
Cr703       O704   1.762       .  S
O705       Cr723   1.998       .  S
O705        C713   1.264       .  A
O706       Cr723   1.985       .  S
O706        C707   1.264       .  A
C707        O708   1.277       .  A
C707        C829   1.501       .  S
O708       Cr724   2.033       .  S
O709       Cr724   2.008       .  S
O709        C710   1.261       .  A
C710        O711   1.266       .  A
C710       C1869   1.508       .  S
O711       Cr725   2.014       .  S
O712       Cr725   1.968       .  S
O712        C713   1.260       .  A
C713       C1325   1.473       .  S
O714       Cr723   1.977       .  S
O714        C722   1.260       .  A
O715       Cr723   2.008       .  S
O715        C716   1.265       .  A
C716        O717   1.259       .  A
C716        C906   1.508       .  S
O717       Cr724   2.003       .  S
O718       Cr724   2.036       .  S
O718        C719   1.277       .  A
C719        O720   1.261       .  A
C719       C1517   1.484       .  S
O720       Cr725   1.976       .  S
O721       Cr725   1.989       .  S
O721        C722   1.262       .  A
C722       C1850   1.493       .  S
Cr723       O726   1.781       .  S
Cr724       O726   1.771       .  S
Cr725       O726   1.771       .  S
O727       Cr745   2.025       .  S
O727        C735   1.272       .  A
O728       Cr745   1.944       .  S
O728        C729   1.252   1_455  A
C729        O730   1.278       .  A
C729        C826   1.488       .  S
O730       Cr746   2.051   1_655  S
O731       Cr746   1.992   1_655  S
O731        C732   1.255       .  A
C732        O733   1.262       .  A
C732       C1453   1.486       .  S
O733       Cr747   2.017   1_655  S
O734       Cr747   1.956   1_655  S
O734        C735   1.263   1_655  A
C735       C2397   1.462   1_455  S
O736       Cr745   1.981       .  S
O736        C744   1.255       .  A
O737       Cr745   2.025       .  S
O737        C738   1.269       .  A
C738        O739   1.254       .  A
C738        C810   1.493       .  S
O739       Cr746   1.965       .  S
O740       Cr746   2.064       .  S
O740        C741   1.282       .  A
C741        O742   1.255       .  A
C741       C1962   1.487       .  S
O742       Cr747   1.926       .  S
O743       Cr747   1.992       .  S
O743        C744   1.260       .  A
C744       C1053   1.463       .  S
Cr745       O748   1.776       .  S
Cr746       O748   1.777       .  S
Cr747       O748   1.763       .  S
O749       Cr767   1.977       .  S
O749        C757   1.262       .  A
O750       Cr767   1.998       .  S
O750        C751   1.259       .  A
C751        O752   1.259       .  A
C751       C1258   1.494       .  S
O752       Cr768   2.012       .  S
O753       Cr768   2.049       .  S
O753        C754   1.283       .  A
C754        O755   1.270       .  A
C754        C794   1.521       .  S
O755       Cr769   1.998       .  S
O756       Cr769   1.983       .  S
O756        C757   1.263       .  A
C757       C1613   1.462       .  S
O758       Cr767   1.968       .  S
O758        C766   1.257       .  A
O759       Cr767   1.989       .  S
O759        C760   1.265       .  A
C760        O761   1.275       .  A
C760       C1725   1.488       .  S
O761       Cr768   2.034       .  S
O762       Cr768   1.995       .  S
O762        C763   1.256       .  A
C763        O764   1.264       .  A
C763        C813   1.501       .  S
O764       Cr769   2.016       .  S
O765       Cr769   1.979       .  S
O765        C766   1.260       .  A
C766       C1437   1.474       .  S
Cr767       O770   1.770       .  S
Cr768       O770   1.770       .  S
Cr769       O770   1.771       .  S
O771       Cr789   1.960       .  S
O771        C779   1.263       .  A
O772       Cr789   1.999       .  S
O772        C773   1.248       .  A
C773        O774   1.246       .  A
C773       C1770   1.497       .  S
O774       Cr790   1.995       .  S
O775       Cr790   2.051       .  S
O775        C776   1.290       .  A
C776        O777   1.271       .  A
C776        C797   1.504   1_545  S
O777       Cr791   1.999       .  S
O778       Cr791   1.995       .  S
O778        C779   1.267       .  A
C779       C1546   1.471       .  S
O780       Cr789   1.967       .  S
O780        C788   1.255       .  A
O781       Cr789   2.006       .  S
O781        C782   1.281       .  A
C782        O783   1.291       .  A
C782       C1290   1.499       .  S
O783       Cr790   2.039       .  S
O784       Cr790   1.986       .  S
O784        C785   1.248       .  A
C785        O786   1.256       .  A
C785        C845   1.491       .  S
O786       Cr791   2.005       .  S
O787       Cr791   1.975       .  S
O787        C788   1.253       .  A
C788       C1917   1.470       .  S
Cr789       O792   1.765       .  S
Cr790       O792   1.768       .  S
Cr791       O792   1.781       .  S
C793        C794   1.415       .  A
C793        C798   1.410       .  A
C793        H800   1.084       .  S
C794        C795   1.418       .  A
C795        C796   1.424       .  A
C795        C802   1.504       .  S
C796        C797   1.412       .  A
C796        H801   1.080   1_565  S
C797        C798   1.412       .  A
C798        C799   1.506       .  S
C799        H803   1.111       .  S
C799        H804   1.110       .  S
C799        H805   1.108       .  S
C802        H806   1.110       .  S
C802        H807   1.110       .  S
C802        H808   1.110       .  S
C809        C810   1.400       .  A
C809        C814   1.408       .  A
C809        H816   1.084       .  S
C810        C811   1.420       .  A
C811        C812   1.411       .  A
C811        C818   1.508       .  S
C812        C813   1.405       .  A
C812        H817   1.084       .  S
C813        C814   1.426       .  A
C814        C815   1.509       .  S
C815        H819   1.111       .  S
C815        H820   1.109       .  S
C815        H821   1.109       .  S
C818        H822   1.109       .  S
C818        H823   1.111       .  S
C818        H824   1.111       .  S
C825        C826   1.414       .  A
C825        C830   1.414       .  A
C825        H832   1.084       .  S
C826        C827   1.406       .  A
C827        C828   1.406       .  A
C827        C834   1.508       .  S
C828        C829   1.414       .  A
C828        H833   1.083       .  S
C829        C830   1.412       .  A
C830        C831   1.505       .  S
C831        H835   1.111       .  S
C831        H836   1.110       .  S
C831        H837   1.110       .  S
C834        H838   1.111   1_655  S
C834        H839   1.110       .  S
C834        H840   1.111       .  S
C841        C842   1.402       .  A
C841        C846   1.403       .  A
C841        H848   1.084       .  S
C842        C843   1.423       .  A
C843        C844   1.406       .  A
C843        C850   1.508       .  S
C844        C845   1.402       .  A
C844        H849   1.084       .  S
C845        C846   1.421       .  A
C846        C847   1.508       .  S
C847        H851   1.111       .  S
C847        H852   1.107       .  S
C847        H853   1.109       .  S
C850        H854   1.109       .  S
C850        H855   1.108       .  S
C850        H856   1.111       .  S
C857        C858   1.416       .  A
C857        C862   1.429       .  A
C857        H864   1.083       .  S
C858        C859   1.406       .  A
C859        C860   1.402       .  A
C859        C866   1.508       .  S
C860        C861   1.416       .  A
C860        H865   1.083       .  S
C861        C862   1.417       .  A
C862        C863   1.503       .  S
C863        H867   1.109       .  S
C863        H868   1.110       .  S
C863        H869   1.110       .  S
C866        H870   1.108       .  S
C866        H871   1.111       .  S
C866        H872   1.111       .  S
C873        C874   1.412       .  A
C873        C878   1.422       .  A
C873        H880   1.081       .  S
C874        C875   1.407       .  A
C875        C876   1.402       .  A
C875        C882   1.508       .  S
C876        C877   1.413       .  A
C876        H881   1.083       .  S
C877        C878   1.418       .  A
C878        C879   1.504       .  S
C879        H883   1.110       .  S
C879        H884   1.110       .  S
C879        H885   1.110       .  S
C882        H886   1.110   1_556  S
C882        H887   1.109       .  S
C882        H888   1.111       .  S
C889        C890   1.402       .  A
C889        C894   1.407       .  A
C889        H896   1.084       .  S
C890        C891   1.428   1_554  A
C891        C892   1.411       .  A
C891        C898   1.509       .  S
C892        C893   1.403       .  A
C892        H897   1.084       .  S
C893        C894   1.427   1_556  A
C894        C895   1.510       .  S
C895        H899   1.111       .  S
C895        H900   1.109       .  S
C895        H901   1.110       .  S
C898        H902   1.110       .  S
C898        H903   1.110   1_556  S
C898        H904   1.111       .  S
C905        C906   1.405       .  A
C905        C910   1.411   1_655  A
C905        H912   1.084       .  S
C906        C907   1.427       .  A
C907        C908   1.410   1_655  A
C907        C914   1.509       .  S
C908        C909   1.404       .  A
C908        H913   1.084       .  S
C909        C910   1.427       .  A
C910        C911   1.509       .  S
C911        H915   1.111       .  S
C911        H916   1.110       .  S
C911        H917   1.110       .  S
C914        H918   1.110       .  S
C914        H919   1.110       .  S
C914        H920   1.111       .  S
C921        C922   1.413       .  A
C921        C926   1.404       .  A
C921        H928   1.082       .  S
C922        C923   1.411       .  A
C923        C924   1.417       .  A
C923        C930   1.504       .  S
C924        C925   1.416       .  A
C924        H929   1.084       .  S
C925        C926   1.412       .  A
C926        C927   1.509       .  S
C927        H931   1.111       .  S
C927        H932   1.104   1_455  S
C927        H933   1.111   1_455  S
C930        H934   1.110       .  S
C930        H935   1.110       .  S
C930        H936   1.110       .  S
C937        C938   1.403       .  A
C937        C942   1.407       .  A
C937        H944   1.085       .  S
C938        C939   1.417       .  A
C939        C940   1.407       .  A
C939        C946   1.508       .  S
C940        C941   1.406       .  A
C940        H945   1.084       .  S
C941        C942   1.420       .  A
C942        C943   1.508       .  S
C943        H947   1.111       .  S
C943        H948   1.109       .  S
C943        H949   1.111       .  S
C946        H950   1.110       .  S
C946        H951   1.109       .  S
C946        H952   1.111       .  S
C953        C954   1.411       .  A
C953        C958   1.412       .  A
C953        H960   1.083       .  S
C954        C955   1.421       .  A
C955        C956   1.411       .  A
C955        C962   1.509       .  S
C956        C957   1.410       .  A
C956        H961   1.084       .  S
C957        C958   1.420       .  A
C958        C959   1.508       .  S
C959        H963   1.111       .  S
C959        H964   1.110       .  S
C959        H965   1.111       .  S
C962        H966   1.110       .  S
C962        H967   1.110       .  S
C962        H968   1.111       .  S
C969        C970   1.411   1_565  A
C969        C974   1.412       .  A
C969        H976   1.078   1_565  S
C970        C971   1.406   1_545  A
C971        C972   1.406       .  A
C971        C978   1.507       .  S
C972        C973   1.419       .  A
C972        H977   1.083       .  S
C973        C974   1.411       .  A
C974        C975   1.505       .  S
C975        H979   1.109       .  S
C975        H980   1.110       .  S
C975        H981   1.110       .  S
C978        H982   1.110       .  S
C978        H983   1.109   1_565  S
C978        H984   1.111       .  S
C985        C986   1.406       .  A
C985        C990   1.412       .  A
C985        H992   1.085       .  S
C986        C987   1.408       .  A
C987        C988   1.408       .  A
C987        C994   1.506       .  S
C988        C989   1.409       .  A
C988        H993   1.082       .  S
C989        C990   1.414       .  A
C990        C991   1.501       .  S
C991        H995   1.110       .  S
C991        H996   1.110       .  S
C991        H997   1.108       .  S
C994        H998   1.110       .  S
C994        H999   1.111       .  S
C994       H1000   1.110       .  S
C1001      C1002   1.403       .  A
C1001      C1006   1.404       .  A
C1001      H1008   1.085       .  S
C1002      C1003   1.413       .  A
C1003      C1004   1.403       .  A
C1003      C1010   1.508       .  S
C1004      C1005   1.404       .  A
C1004      H1009   1.084       .  S
C1005      C1006   1.415       .  A
C1006      C1007   1.506       .  S
C1007      H1011   1.110       .  S
C1007      H1012   1.107       .  S
C1007      H1013   1.110       .  S
C1010      H1014   1.109       .  S
C1010      H1015   1.109       .  S
C1010      H1016   1.111       .  S
C1017      C1018   1.399       .  A
C1017      C1022   1.405       .  A
C1017      H1024   1.085       .  S
C1018      C1019   1.417       .  A
C1019      C1020   1.415       .  A
C1019      C1026   1.504       .  S
C1020      C1021   1.405       .  A
C1020      H1025   1.084       .  S
C1021      C1022   1.417       .  A
C1022      C1023   1.500   1_455  S
C1023      H1027   1.110   1_545  S
C1023      H1028   1.109       .  S
C1023      H1029   1.109       .  S
C1026      H1030   1.106       .  S
C1026      H1031   1.110       .  S
C1026      H1032   1.111       .  S
C1033      C1034   1.410       .  A
C1033      C1038   1.415       .  A
C1033      H1040   1.081       .  S
C1034      C1035   1.405       .  A
C1035      C1036   1.405       .  A
C1035      C1042   1.505       .  S
C1036      C1037   1.416       .  A
C1036      H1041   1.082       .  S
C1037      C1038   1.413       .  A
C1038      C1039   1.504       .  S
C1039      H1043   1.111       .  S
C1039      H1044   1.110       .  S
C1039      H1045   1.111       .  S
C1042      H1046   1.110       .  S
C1042      H1047   1.108       .  S
C1042      H1048   1.111       .  S
C1049      C1050   1.402       .  A
C1049      C1054   1.402       .  A
C1049      H1056   1.084       .  S
C1050      C1051   1.412       .  A
C1051      C1052   1.399       .  A
C1051      C1058   1.507       .  S
C1052      C1053   1.401       .  A
C1052      H1057   1.085       .  S
C1053      C1054   1.409       .  A
C1054      C1055   1.504       .  S
C1055      H1059   1.111   1_565  S
C1055      H1060   1.110       .  S
C1055      H1061   1.110       .  S
C1058      H1062   1.111       .  S
C1058      H1063   1.108       .  S
C1058      H1064   1.110       .  S
C1065      C1066   1.404       .  A
C1065      C1070   1.407       .  A
C1065      H1072   1.084       .  S
C1066      C1067   1.411       .  A
C1067      C1068   1.415       .  A
C1067      C1074   1.505       .  S
C1068      C1069   1.411       .  A
C1068      H1073   1.084       .  S
C1069      C1070   1.413       .  A
C1070      C1071   1.503       .  S
C1071      H1075   1.110       .  S
C1071      H1076   1.109       .  S
C1071      H1077   1.110       .  S
C1074      H1078   1.110       .  S
C1074      H1079   1.110       .  S
C1074      H1080   1.111       .  S
C1081      C1082   1.412       .  A
C1081      C1086   1.412       .  A
C1081      H1088   1.083       .  S
C1082      C1083   1.417       .  A
C1083      C1084   1.404       .  A
C1083      C1090   1.510       .  S
C1084      C1085   1.411       .  A
C1084      H1089   1.083       .  S
C1085      C1086   1.416       .  A
C1086      C1087   1.507       .  S
C1087      H1091   1.111       .  S
C1087      H1092   1.110       .  S
C1087      H1093   1.111       .  S
C1090      H1094   1.110       .  S
C1090      H1095   1.110       .  S
C1090      H1096   1.111       .  S
C1097      C1098   1.400       .  A
C1097      C1102   1.398       .  A
C1097      H1104   1.085       .  S
C1098      C1099   1.409       .  A
C1099      C1100   1.406       .  A
C1099      C1106   1.506       .  S
C1100      C1101   1.403       .  A
C1100      H1105   1.081       .  S
C1101      C1102   1.412       .  A
C1102      C1103   1.508       .  S
C1103      H1107   1.111       .  S
C1103      H1108   1.110       .  S
C1103      H1109   1.110       .  S
C1106      H1110   1.111       .  S
C1106      H1111   1.110       .  S
C1106      H1112   1.110       .  S
C1113      C1114   1.401       .  A
C1113      C1118   1.392       .  A
C1113      H1120   1.085       .  S
C1114      C1115   1.418       .  A
C1115      C1116   1.423       .  A
C1115      C1122   1.504       .  S
C1116      C1117   1.411       .  A
C1116      H1121   1.084       .  S
C1117      C1118   1.421       .  A
C1118      C1119   1.508       .  S
C1119      H1123   1.111       .  S
C1119      H1124   1.097       .  S
C1119      H1125   1.111       .  S
C1122      H1126   1.111       .  S
C1122      H1127   1.110       .  S
C1122      H1128   1.111       .  S
C1129      C1130   1.407       .  A
C1129      C1134   1.417       .  A
C1129      H1136   1.083       .  S
C1130      C1131   1.440       .  A
C1131      C1132   1.405       .  A
C1131      C1138   1.513       .  S
C1132      C1133   1.389       .  A
C1132      H1137   1.085       .  S
C1133      C1134   1.418       .  A
C1134      C1135   1.506       .  S
C1135      H1139   1.111       .  S
C1135      H1140   1.110       .  S
C1135      H1141   1.106       .  S
C1138      H1142   1.102       .  S
C1138      H1143   1.108       .  S
C1138      H1144   1.111       .  S
C1145      C1146   1.402       .  A
C1145      C1150   1.403       .  A
C1145      H1152   1.085       .  S
C1146      C1147   1.408       .  A
C1147      C1148   1.402       .  A
C1147      C1154   1.506       .  S
C1148      C1149   1.405       .  A
C1148      H1153   1.084       .  S
C1149      C1150   1.415       .  A
C1150      C1151   1.508       .  S
C1151      H1155   1.111       .  S
C1151      H1156   1.109       .  S
C1151      H1157   1.110       .  S
C1154      H1158   1.109       .  S
C1154      H1159   1.110       .  S
C1154      H1160   1.111       .  S
C1161      C1162   1.397   1_554  A
C1161      C1166   1.404       .  A
C1161      H1168   1.085       .  S
C1162      C1163   1.417       .  A
C1163      C1164   1.407       .  A
C1163      C1170   1.504       .  S
C1164      C1165   1.403       .  A
C1164      H1169   1.084       .  S
C1165      C1166   1.425   1_556  A
C1166      C1167   1.506       .  S
C1167      H1171   1.111       .  S
C1167      H1172   1.108       .  S
C1167      H1173   1.110       .  S
C1170      H1174   1.105       .  S
C1170      H1175   1.110       .  S
C1170      H1176   1.109       .  S
C1177      C1178   1.399       .  A
C1177      C1182   1.396       .  A
C1177      H1184   1.085       .  S
C1178      C1179   1.411       .  A
C1179      C1180   1.402       .  A
C1179      C1186   1.507       .  S
C1180      C1181   1.403       .  A
C1180      H1185   1.085       .  S
C1181      C1182   1.410       .  A
C1182      C1183   1.507       .  S
C1183      H1187   1.111       .  S
C1183      H1188   1.109       .  S
C1183      H1189   1.108       .  S
C1186      H1190   1.111       .  S
C1186      H1191   1.107       .  S
C1186      H1192   1.110       .  S
C1193      C1194   1.404       .  A
C1193      C1198   1.412       .  A
C1193      H1200   1.084       .  S
C1194      C1195   1.420       .  A
C1195      C1196   1.410       .  A
C1195      C1202   1.508       .  S
C1196      C1197   1.406       .  A
C1196      H1201   1.084       .  S
C1197      C1198   1.426       .  A
C1198      C1199   1.509       .  S
C1199      H1203   1.111       .  S
C1199      H1204   1.109       .  S
C1199      H1205   1.110       .  S
C1202      H1206   1.109       .  S
C1202      H1207   1.110       .  S
C1202      H1208   1.111       .  S
C1209      C1210   1.410       .  A
C1209      C1214   1.408   1_545  A
C1209      H1216   1.082       .  S
C1210      C1211   1.419   1_545  A
C1211      C1212   1.413       .  A
C1211      C1218   1.507   1_565  S
C1212      C1213   1.406       .  A
C1212      H1217   1.084       .  S
C1213      C1214   1.411       .  A
C1214      C1215   1.506       .  S
C1215      H1219   1.111       .  S
C1215      H1220   1.110       .  S
C1215      H1221   1.108       .  S
C1218      H1222   1.110       .  S
C1218      H1223   1.109       .  S
C1218      H1224   1.111   1_545  S
C1225      C1226   1.410       .  A
C1225      C1230   1.419       .  A
C1225      H1232   1.083       .  S
C1226      C1227   1.406       .  A
C1227      C1228   1.402       .  A
C1227      C1234   1.508       .  S
C1228      C1229   1.414       .  A
C1228      H1233   1.083       .  S
C1229      C1230   1.419       .  A
C1230      C1231   1.504       .  S
C1231      H1235   1.109       .  S
C1231      H1236   1.110       .  S
C1231      H1237   1.110       .  S
C1234      H1238   1.110       .  S
C1234      H1239   1.110   1_655  S
C1234      H1240   1.111       .  S
C1241      C1242   1.406       .  A
C1241      C1246   1.394   1_554  A
C1241      H1248   1.085       .  S
C1242      C1243   1.414       .  A
C1243      C1244   1.400   1_554  A
C1243      C1250   1.503       .  S
C1244      C1245   1.406       .  A
C1244      H1249   1.085       .  S
C1245      C1246   1.416       .  A
C1246      C1247   1.511       .  S
C1247      H1251   1.111       .  S
C1247      H1252   1.106       .  S
C1247      H1253   1.110       .  S
C1250      H1254   1.099       .  S
C1250      H1255   1.107       .  S
C1250      H1256   1.111       .  S
C1257      C1258   1.404       .  A
C1257      C1262   1.411       .  A
C1257      H1264   1.084       .  S
C1258      C1259   1.422       .  A
C1259      C1260   1.405       .  A
C1259      C1266   1.501       .  S
C1260      C1261   1.396       .  A
C1260      H1265   1.084       .  S
C1261      C1262   1.412       .  A
C1262      C1263   1.505       .  S
C1263      H1267   1.111       .  S
C1263      H1268   1.102       .  S
C1263      H1269   1.110       .  S
C1266      H1270   1.100       .  S
C1266      H1271   1.110       .  S
C1266      H1272   1.111       .  S
C1273      C1274   1.403       .  A
C1273      C1278   1.396       .  A
C1273      H1280   1.085       .  S
C1274      C1275   1.407       .  A
C1275      C1276   1.399       .  A
C1275      C1282   1.502       .  S
C1276      C1277   1.409       .  A
C1276      H1281   1.084       .  S
C1277      C1278   1.418       .  A
C1278      C1279   1.510       .  S
C1279      H1283   1.111       .  S
C1279      H1284   1.110       .  S
C1279      H1285   1.108       .  S
C1282      H1286   1.109       .  S
C1282      H1287   1.110       .  S
C1282      H1288   1.110       .  S
C1289      C1290   1.403       .  A
C1289      C1294   1.418       .  A
C1289      H1296   1.082       .  S
C1290      C1291   1.416       .  A
C1291      C1292   1.407       .  A
C1291      C1298   1.498       .  S
C1292      C1293   1.402       .  A
C1292      H1297   1.084       .  S
C1293      C1294   1.426       .  A
C1294      C1295   1.502       .  S
C1295      H1299   1.111       .  S
C1295      H1300   1.105       .  S
C1295      H1301   1.110       .  S
C1298      H1302   1.109       .  S
C1298      H1303   1.109       .  S
C1298      H1304   1.111       .  S
C1305      C1306   1.413       .  A
C1305      C1310   1.400       .  A
C1305      H1312   1.083       .  S
C1306      C1307   1.418       .  A
C1307      C1308   1.419       .  A
C1307      C1314   1.504       .  S
C1308      C1309   1.408       .  A
C1308      H1313   1.081       .  S
C1309      C1310   1.406       .  A
C1310      C1311   1.510       .  S
C1311      H1315   1.111       .  S
C1311      H1316   1.111       .  S
C1311      H1317   1.109       .  S
C1314      H1318   1.110       .  S
C1314      H1319   1.110       .  S
C1314      H1320   1.110       .  S
C1321      C1322   1.413       .  A
C1321      C1326   1.404       .  A
C1321      H1328   1.084       .  S
C1322      C1323   1.418       .  A
C1323      C1324   1.400       .  A
C1323      C1330   1.509       .  S
C1324      C1325   1.404       .  A
C1324      H1329   1.085       .  S
C1325      C1326   1.405       .  A
C1326      C1327   1.503       .  S
C1327      H1331   1.111       .  S
C1327      H1332   1.107       .  S
C1327      H1333   1.110       .  S
C1330      H1334   1.106       .  S
C1330      H1335   1.110       .  S
C1330      H1336   1.111       .  S
C1337      C1338   1.406       .  A
C1337      C1342   1.407       .  A
C1337      H1344   1.084       .  S
C1338      C1339   1.421       .  A
C1339      C1340   1.410       .  A
C1339      C1346   1.508       .  S
C1340      C1341   1.407       .  A
C1340      H1345   1.084       .  S
C1341      C1342   1.420       .  A
C1342      C1343   1.508       .  S
C1343      H1347   1.111       .  S
C1343      H1348   1.110       .  S
C1343      H1349   1.110       .  S
C1346      H1350   1.110       .  S
C1346      H1351   1.111       .  S
C1346      H1352   1.111       .  S
C1353      C1354   1.403   1_565  A
C1353      C1358   1.413       .  A
C1353      H1360   1.084       .  S
C1354      C1355   1.418   1_545  A
C1355      C1356   1.414       .  A
C1355      C1362   1.504   1_565  S
C1356      C1357   1.405       .  A
C1356      H1361   1.084       .  S
C1357      C1358   1.424       .  A
C1358      C1359   1.507       .  S
C1359      H1363   1.111       .  S
C1359      H1364   1.110       .  S
C1359      H1365   1.103       .  S
C1362      H1366   1.108       .  S
C1362      H1367   1.106       .  S
C1362      H1368   1.110   1_545  S
C1369      C1370   1.408       .  A
C1369      C1374   1.399       .  A
C1369      H1376   1.085       .  S
C1370      C1371   1.409       .  A
C1371      C1372   1.400       .  A
C1371      C1378   1.503   1_554  S
C1372      C1373   1.407       .  A
C1372      H1377   1.084       .  S
C1373      C1374   1.410       .  A
C1374      C1375   1.509       .  S
C1375      H1379   1.111       .  S
C1375      H1380   1.108       .  S
C1375      H1381   1.110       .  S
C1378      H1382   1.111   1_556  S
C1378      H1383   1.110       .  S
C1378      H1384   1.108       .  S
C1385      C1386   1.396       .  A
C1385      C1390   1.410       .  A
C1385      H1392   1.078       .  S
C1386      C1387   1.415       .  A
C1387      C1388   1.406       .  A
C1387      C1394   1.505       .  S
C1388      C1389   1.401       .  A
C1388      H1393   1.084       .  S
C1389      C1390   1.423       .  A
C1390      C1391   1.505       .  S
C1391      H1395   1.110   1_554  S
C1391      H1396   1.109   1_554  S
C1391      H1397   1.107       .  S
C1394      H1398   1.110       .  S
C1394      H1399   1.107       .  S
C1394      H1400   1.111       .  S
C1401      C1402   1.391       .  A
C1401      C1406   1.406       .  A
C1401      H1408   1.085       .  S
C1402      C1403   1.419       .  A
C1403      C1404   1.416       .  A
C1403      C1410   1.507       .  S
C1404      C1405   1.408       .  A
C1404      H1409   1.083       .  S
C1405      C1406   1.439       .  A
C1406      C1407   1.511   1_455  S
C1407      H1411   1.111       .  S
C1407      H1412   1.104       .  S
C1407      H1413   1.110       .  S
C1410      H1414   1.110       .  S
C1410      H1415   1.109       .  S
C1410      H1416   1.111       .  S
C1417      C1418   1.408   1_554  A
C1417      C1422   1.400       .  A
C1417      H1424   1.084       .  S
C1418      C1419   1.414       .  A
C1419      C1420   1.405   1_656  A
C1419      C1426   1.507       .  S
C1420      C1421   1.407       .  A
C1420      H1425   1.084   1_554  S
C1421      C1422   1.411   1_455  A
C1422      C1423   1.506       .  S
C1423      H1427   1.111       .  S
C1423      H1428   1.110       .  S
C1423      H1429   1.108   1_655  S
C1426      H1430   1.110       .  S
C1426      H1431   1.110       .  S
C1426      H1432   1.111   1_655  S
C1433      C1434   1.400       .  A
C1433      C1438   1.399       .  A
C1433      H1440   1.084       .  S
C1434      C1435   1.410       .  A
C1435      C1436   1.398       .  A
C1435      C1442   1.508       .  S
C1436      C1437   1.405       .  A
C1436      H1441   1.084       .  S
C1437      C1438   1.414       .  A
C1438      C1439   1.506       .  S
C1439      H1443   1.111       .  S
C1439      H1444   1.110       .  S
C1439      H1445   1.109       .  S
C1442      H1446   1.109       .  S
C1442      H1447   1.111       .  S
C1442      H1448   1.111       .  S
C1449      C1450   1.410       .  A
C1449      C1454   1.411       .  A
C1449      H1456   1.085       .  S
C1450      C1451   1.412       .  A
C1451      C1452   1.409       .  A
C1451      C1458   1.504       .  S
C1452      C1453   1.404       .  A
C1452      H1457   1.081       .  S
C1453      C1454   1.409       .  A
C1454      C1455   1.505       .  S
C1455      H1459   1.110       .  S
C1455      H1460   1.110       .  S
C1455      H1461   1.110       .  S
C1458      H1462   1.109       .  S
C1458      H1463   1.109       .  S
C1458      H1464   1.110       .  S
C1465      C1466   1.409       .  A
C1465      C1470   1.408       .  A
C1465      H1472   1.083       .  S
C1466      C1467   1.420       .  A
C1467      C1468   1.404       .  A
C1467      C1474   1.509       .  S
C1468      C1469   1.407       .  A
C1468      H1473   1.084       .  S
C1469      C1470   1.419       .  A
C1470      C1471   1.509       .  S
C1471      H1475   1.111       .  S
C1471      H1476   1.110       .  S
C1471      H1477   1.110       .  S
C1474      H1478   1.110       .  S
C1474      H1479   1.110       .  S
C1474      H1480   1.111       .  S
C1481      C1482   1.401       .  A
C1481      C1486   1.400       .  A
C1481      H1488   1.085       .  S
C1482      C1483   1.412   1_565  A
C1483      C1484   1.401       .  A
C1483      C1490   1.506       .  S
C1484      C1485   1.402       .  A
C1484      H1489   1.085       .  S
C1485      C1486   1.412   1_545  A
C1486      C1487   1.504       .  S
C1487      H1491   1.111       .  S
C1487      H1492   1.107       .  S
C1487      H1493   1.110       .  S
C1490      H1494   1.108       .  S
C1490      H1495   1.110       .  S
C1490      H1496   1.110       .  S
C1497      C1498   1.410   1_545  A
C1497      C1502   1.403   1_545  A
C1497      H1504   1.084       .  S
C1498      C1499   1.413       .  A
C1499      C1500   1.411       .  A
C1499      C1506   1.506       .  S
C1500      C1501   1.413       .  A
C1500      H1505   1.084       .  S
C1501      C1502   1.413       .  A
C1502      C1503   1.507   1_565  S
C1503      H1507   1.111       .  S
C1503      H1508   1.109   1_545  S
C1503      H1509   1.107   1_545  S
C1506      H1510   1.109       .  S
C1506      H1511   1.109       .  S
C1506      H1512   1.111       .  S
C1513      C1514   1.403       .  A
C1513      C1518   1.402       .  A
C1513      H1520   1.082       .  S
C1514      C1515   1.415       .  A
C1515      C1516   1.418       .  A
C1515      C1522   1.505       .  S
C1516      C1517   1.410       .  A
C1516      H1521   1.084       .  S
C1517      C1518   1.413       .  A
C1518      C1519   1.503       .  S
C1519      H1523   1.110       .  S
C1519      H1524   1.110       .  S
C1519      H1525   1.109       .  S
C1522      H1526   1.110       .  S
C1522      H1527   1.110       .  S
C1522      H1528   1.111       .  S
C1529      C1530   1.417   1_565  A
C1529      C1534   1.405   1_565  A
C1529      H1536   1.081       .  S
C1530      C1531   1.413       .  A
C1531      C1532   1.417       .  A
C1531      C1538   1.504       .  S
C1532      C1533   1.414       .  A
C1532      H1537   1.082       .  S
C1533      C1534   1.404       .  A
C1534      C1535   1.506       .  S
C1535      H1539   1.111   1_545  S
C1535      H1540   1.109   1_545  S
C1535      H1541   1.110       .  S
C1538      H1542   1.110       .  S
C1538      H1543   1.110       .  S
C1538      H1544   1.111       .  S
C1545      C1546   1.406       .  A
C1545      C1550   1.403       .  A
C1545      H1552   1.084       .  S
C1546      C1547   1.415       .  A
C1547      C1548   1.394       .  A
C1547      C1554   1.510       .  S
C1548      C1549   1.400       .  A
C1548      H1553   1.084       .  S
C1549      C1550   1.405       .  A
C1550      C1551   1.503       .  S
C1551      H1555   1.111       .  S
C1551      H1556   1.110       .  S
C1551      H1557   1.110       .  S
C1554      H1558   1.111       .  S
C1554      H1559   1.106       .  S
C1554      H1560   1.110       .  S
C1561      C1562   1.403       .  A
C1561      C1566   1.413       .  A
C1561      H1568   1.084       .  S
C1562      C1563   1.413       .  A
C1563      C1564   1.399       .  A
C1563      C1570   1.494       .  S
C1564      C1565   1.396       .  A
C1564      H1569   1.078       .  S
C1565      C1566   1.419       .  A
C1566      C1567   1.503       .  S
C1567      H1571   1.108       .  S
C1567      H1572   1.110       .  S
C1567      H1573   1.109       .  S
C1570      H1574   1.109       .  S
C1570      H1575   1.109       .  S
C1570      H1576   1.110       .  S
C1577      C1578   1.405       .  A
C1577      C1582   1.414       .  A
C1577      H1584   1.084       .  S
C1578      C1579   1.424       .  A
C1579      C1580   1.414       .  A
C1579      C1586   1.504   1_554  S
C1580      C1581   1.403       .  A
C1580      H1585   1.084   1_554  S
C1581      C1582   1.419       .  A
C1582      C1583   1.503       .  S
C1583      H1587   1.107       .  S
C1583      H1588   1.110       .  S
C1583      H1589   1.109       .  S
C1586      H1590   1.110       .  S
C1586      H1591   1.102   1_556  S
C1586      H1592   1.111       .  S
C1593      C1594   1.398       .  A
C1593      C1598   1.400       .  A
C1593      H1600   1.085       .  S
C1594      C1595   1.403       .  A
C1595      C1596   1.400       .  A
C1595      C1602   1.506       .  S
C1596      C1597   1.412       .  A
C1596      H1601   1.084       .  S
C1597      C1598   1.422       .  A
C1598      C1599   1.508       .  S
C1599      H1603   1.111       .  S
C1599      H1604   1.105       .  S
C1599      H1605   1.110       .  S
C1602      H1606   1.108       .  S
C1602      H1607   1.110       .  S
C1602      H1608   1.111       .  S
C1609      C1610   1.399       .  A
C1609      C1614   1.399       .  A
C1609      H1616   1.085       .  S
C1610      C1611   1.420       .  A
C1611      C1612   1.400       .  A
C1611      C1618   1.509       .  S
C1612      C1613   1.396       .  A
C1612      H1617   1.085       .  S
C1613      C1614   1.413       .  A
C1614      C1615   1.507       .  S
C1615      H1619   1.111       .  S
C1615      H1620   1.111       .  S
C1615      H1621   1.108       .  S
C1618      H1622   1.110       .  S
C1618      H1623   1.109       .  S
C1618      H1624   1.111       .  S
C1625      C1626   1.401       .  A
C1625      C1630   1.413   1_655  A
C1625      H1632   1.080       .  S
C1626      C1627   1.419       .  A
C1627      C1628   1.399   1_655  A
C1627      C1634   1.502       .  S
C1628      C1629   1.395       .  A
C1628      H1633   1.085       .  S
C1629      C1630   1.420       .  A
C1630      C1631   1.506       .  S
C1631      H1635   1.111       .  S
C1631      H1636   1.110       .  S
C1631      H1637   1.110       .  S
C1634      H1638   1.110       .  S
C1634      H1639   1.107       .  S
C1634      H1640   1.110       .  S
C1641      C1642   1.408       .  A
C1641      C1646   1.422       .  A
C1641      H1648   1.084       .  S
C1642      C1643   1.414       .  A
C1643      C1644   1.398       .  A
C1643      C1650   1.496       .  S
C1644      C1645   1.399       .  A
C1644      H1649   1.081       .  S
C1645      C1646   1.419       .  A
C1646      C1647   1.503       .  S
C1647      H1651   1.111       .  S
C1647      H1652   1.110       .  S
C1647      H1653   1.105       .  S
C1650      H1654   1.107       .  S
C1650      H1655   1.109       .  S
C1650      H1656   1.110       .  S
C1657      C1658   1.392       .  A
C1657      C1662   1.406       .  A
C1657      H1664   1.085       .  S
C1658      C1659   1.418       .  A
C1659      C1660   1.417       .  A
C1659      C1666   1.506       .  S
C1660      C1661   1.408       .  A
C1660      H1665   1.083       .  S
C1661      C1662   1.439       .  A
C1662      C1663   1.513       .  S
C1663      H1667   1.111       .  S
C1663      H1668   1.108       .  S
C1663      H1669   1.110       .  S
C1666      H1670   1.110       .  S
C1666      H1671   1.110       .  S
C1666      H1672   1.111       .  S
C1673      C1674   1.403       .  A
C1673      C1678   1.400   1_556  A
C1673      H1680   1.085       .  S
C1674      C1675   1.415   1_556  A
C1675      C1676   1.405       .  A
C1675      C1682   1.507   1_655  S
C1676      C1677   1.400       .  A
C1676      H1681   1.082       .  S
C1677      C1678   1.413       .  A
C1678      C1679   1.506       .  S
C1679      H1683   1.111       .  S
C1679      H1684   1.108       .  S
C1679      H1685   1.111       .  S
C1682      H1686   1.110       .  S
C1682      H1687   1.111       .  S
C1682      H1688   1.111       .  S
C1689      C1690   1.399       .  A
C1689      C1694   1.401   1_554  A
C1689      H1696   1.085       .  S
C1690      C1691   1.410       .  A
C1691      C1692   1.395   1_554  A
C1691      C1698   1.509       .  S
C1692      C1693   1.403       .  A
C1692      H1697   1.084       .  S
C1693      C1694   1.417       .  A
C1694      C1695   1.509       .  S
C1695      H1699   1.111       .  S
C1695      H1700   1.108       .  S
C1695      H1701   1.110       .  S
C1698      H1702   1.109       .  S
C1698      H1703   1.110   1_565  S
C1698      H1704   1.111   1_564  S
C1705      C1706   1.407       .  A
C1705      C1710   1.409       .  A
C1705      H1712   1.084       .  S
C1706      C1707   1.415       .  A
C1707      C1708   1.409       .  A
C1707      C1714   1.507       .  S
C1708      C1709   1.406       .  A
C1708      H1713   1.085       .  S
C1709      C1710   1.411       .  A
C1710      C1711   1.503       .  S
C1711      H1715   1.111       .  S
C1711      H1716   1.110       .  S
C1711      H1717   1.106       .  S
C1714      H1718   1.110       .  S
C1714      H1719   1.107       .  S
C1714      H1720   1.111       .  S
C1721      C1722   1.410       .  A
C1721      C1726   1.407       .  A
C1721      H1728   1.082       .  S
C1722      C1723   1.416       .  A
C1723      C1724   1.414       .  A
C1723      C1730   1.505       .  S
C1724      C1725   1.408       .  A
C1724      H1729   1.083       .  S
C1725      C1726   1.410       .  A
C1726      C1727   1.502       .  S
C1727      H1731   1.110       .  S
C1727      H1732   1.110       .  S
C1727      H1733   1.110       .  S
C1730      H1734   1.111       .  S
C1730      H1735   1.110       .  S
C1730      H1736   1.108       .  S
C1737      C1738   1.398       .  A
C1737      C1742   1.408       .  A
C1737      H1744   1.084       .  S
C1738      C1739   1.413       .  A
C1739      C1740   1.404       .  A
C1739      C1746   1.509       .  S
C1740      C1741   1.405       .  A
C1740      H1745   1.084       .  S
C1741      C1742   1.424       .  A
C1742      C1743   1.508       .  S
C1743      H1747   1.111       .  S
C1743      H1748   1.110       .  S
C1743      H1749   1.110       .  S
C1746      H1750   1.109       .  S
C1746      H1751   1.111       .  S
C1746      H1752   1.109       .  S
C1753      C1754   1.402       .  A
C1753      C1758   1.400       .  A
C1753      H1760   1.084       .  S
C1754      C1755   1.414       .  A
C1755      C1756   1.395       .  A
C1755      C1762   1.510       .  S
C1756      C1757   1.400       .  A
C1756      H1761   1.085       .  S
C1757      C1758   1.408       .  A
C1758      C1759   1.501       .  S
C1759      H1763   1.111       .  S
C1759      H1764   1.109       .  S
C1759      H1765   1.110       .  S
C1762      H1766   1.111       .  S
C1762      H1767   1.107       .  S
C1762      H1768   1.110       .  S
C1769      C1770   1.406       .  A
C1769      C1774   1.414       .  A
C1769      H1776   1.084       .  S
C1770      C1771   1.421       .  A
C1771      C1772   1.405       .  A
C1771      C1778   1.502       .  S
C1772      C1773   1.399       .  A
C1772      H1777   1.085       .  S
C1773      C1774   1.416       .  A
C1774      C1775   1.505       .  S
C1775      H1779   1.111       .  S
C1775      H1780   1.106       .  S
C1775      H1781   1.111       .  S
C1778      H1782   1.104       .  S
C1778      H1783   1.110       .  S
C1778      H1784   1.111       .  S
C1785      C1786   1.404       .  A
C1785      C1790   1.409       .  A
C1785      H1792   1.084       .  S
C1786      C1787   1.425       .  A
C1787      C1788   1.408       .  A
C1787      C1794   1.509       .  S
C1788      C1789   1.399       .  A
C1788      H1793   1.084       .  S
C1789      C1790   1.419       .  A
C1790      C1791   1.508       .  S
C1791      H1795   1.111       .  S
C1791      H1796   1.109       .  S
C1791      H1797   1.111       .  S
C1794      H1798   1.109       .  S
C1794      H1799   1.108       .  S
C1794      H1800   1.111       .  S
C1801      C1802   1.407       .  A
C1801      C1806   1.402       .  A
C1801      H1808   1.085       .  S
C1802      C1803   1.410       .  A
C1803      C1804   1.409       .  A
C1803      C1810   1.507       .  S
C1804      C1805   1.408       .  A
C1804      H1809   1.084       .  S
C1805      C1806   1.409       .  A
C1806      C1807   1.502       .  S
C1807      H1811   1.110       .  S
C1807      H1812   1.109       .  S
C1807      H1813   1.111       .  S
C1810      H1814   1.110       .  S
C1810      H1815   1.108       .  S
C1810      H1816   1.111       .  S
C1817      C1818   1.413       .  A
C1817      C1822   1.404       .  A
C1817      H1824   1.085       .  S
C1818      C1819   1.417       .  A
C1819      C1820   1.418   1_655  A
C1819      C1826   1.504       .  S
C1820      C1821   1.409       .  A
C1820      H1825   1.082       .  S
C1821      C1822   1.409   1_455  A
C1822      C1823   1.504       .  S
C1823      H1827   1.111       .  S
C1823      H1828   1.108   1_655  S
C1823      H1829   1.110       .  S
C1826      H1830   1.110       .  S
C1826      H1831   1.110       .  S
C1826      H1832   1.109       .  S
C1833      C1834   1.401       .  A
C1833      C1838   1.397       .  A
C1833      H1840   1.085       .  S
C1834      C1835   1.410       .  A
C1835      C1836   1.402       .  A
C1835      C1842   1.505       .  S
C1836      C1837   1.405       .  A
C1836      H1841   1.084       .  S
C1837      C1838   1.416       .  A
C1838      C1839   1.509       .  S
C1839      H1843   1.111       .  S
C1839      H1844   1.110       .  S
C1839      H1845   1.110       .  S
C1842      H1846   1.110       .  S
C1842      H1847   1.107       .  S
C1842      H1848   1.111       .  S
C1849      C1850   1.414       .  A
C1849      C1854   1.402       .  A
C1849      H1856   1.084       .  S
C1850      C1851   1.418       .  A
C1851      C1852   1.402       .  A
C1851      C1858   1.506       .  S
C1852      C1853   1.402       .  A
C1852      H1857   1.085       .  S
C1853      C1854   1.407       .  A
C1854      C1855   1.508       .  S
C1855      H1859   1.110       .  S
C1855      H1860   1.111       .  S
C1855      H1861   1.107       .  S
C1858      H1862   1.109       .  S
C1858      H1863   1.107       .  S
C1858      H1864   1.111       .  S
C1865      C1866   1.412       .  A
C1865      C1870   1.418       .  A
C1865      H1872   1.082       .  S
C1866      C1867   1.409       .  A
C1867      C1868   1.409       .  A
C1867      C1874   1.503       .  S
C1868      C1869   1.412       .  A
C1868      H1873   1.082       .  S
C1869      C1870   1.415       .  A
C1870      C1871   1.507       .  S
C1871      H1875   1.111       .  S
C1871      H1876   1.108       .  S
C1871      H1877   1.110       .  S
C1874      H1878   1.107       .  S
C1874      H1879   1.110       .  S
C1874      H1880   1.110       .  S
C1881      C1882   1.396       .  A
C1881      C1886   1.407       .  A
C1881      H1888   1.083       .  S
C1882      C1883   1.419       .  A
C1883      C1884   1.407       .  A
C1883      C1890   1.509       .  S
C1884      C1885   1.400       .  A
C1884      H1889   1.084       .  S
C1885      C1886   1.420       .  A
C1886      C1887   1.500       .  S
C1887      H1891   1.111       .  S
C1887      H1892   1.110       .  S
C1887      H1893   1.106       .  S
C1890      H1894   1.110       .  S
C1890      H1895   1.106       .  S
C1890      H1896   1.111       .  S
C1897      C1898   1.407       .  A
C1897      C1902   1.404       .  A
C1897      H1904   1.084       .  S
C1898      C1899   1.420       .  A
C1899      C1900   1.395       .  A
C1899      C1906   1.512       .  S
C1900      C1901   1.402       .  A
C1900      H1905   1.085       .  S
C1901      C1902   1.411       .  A
C1902      C1903   1.503       .  S
C1903      H1907   1.111       .  S
C1903      H1908   1.110       .  S
C1903      H1909   1.109       .  S
C1906      H1910   1.110       .  S
C1906      H1911   1.107       .  S
C1906      H1912   1.111       .  S
C1913      C1914   1.403       .  A
C1913      C1918   1.388       .  A
C1913      H1920   1.085       .  S
C1914      C1915   1.414       .  A
C1915      C1916   1.410       .  A
C1915      C1922   1.505       .  S
C1916      C1917   1.406       .  A
C1916      H1921   1.084       .  S
C1917      C1918   1.411       .  A
C1918      C1919   1.510       .  S
C1919      H1923   1.111       .  S
C1919      H1924   1.109       .  S
C1919      H1925   1.105       .  S
C1922      H1926   1.110       .  S
C1922      H1927   1.110       .  S
C1922      H1928   1.111       .  S
C1929      C1930   1.408   1_655  A
C1929      C1934   1.415       .  A
C1929      H1936   1.084   1_655  S
C1930      C1931   1.411   1_455  A
C1931      C1932   1.406       .  A
C1931      C1938   1.506   1_655  S
C1932      C1933   1.410       .  A
C1932      H1937   1.084       .  S
C1933      C1934   1.418       .  A
C1934      C1935   1.506       .  S
C1935      H1939   1.111       .  S
C1935      H1940   1.109       .  S
C1935      H1941   1.111       .  S
C1938      H1942   1.109       .  S
C1938      H1943   1.110       .  S
C1938      H1944   1.110   1_455  S
C1945      C1946   1.401       .  A
C1945      C1950   1.406       .  A
C1945      H1952   1.085       .  S
C1946      C1947   1.420       .  A
C1947      C1948   1.406       .  A
C1947      C1954   1.509       .  S
C1948      C1949   1.400       .  A
C1948      H1953   1.084       .  S
C1949      C1950   1.418       .  A
C1950      C1951   1.504       .  S
C1951      H1955   1.111       .  S
C1951      H1956   1.111       .  S
C1951      H1957   1.108       .  S
C1954      H1958   1.109       .  S
C1954      H1959   1.111       .  S
C1954      H1960   1.111       .  S
C1961      C1962   1.415       .  A
C1961      C1966   1.404   1_565  A
C1961      H1968   1.084       .  S
C1962      C1963   1.413       .  A
C1963      C1964   1.404   1_565  A
C1963      C1970   1.501       .  S
C1964      C1965   1.404       .  A
C1964      H1969   1.084       .  S
C1965      C1966   1.404       .  A
C1966      C1967   1.506       .  S
C1967      H1971   1.110       .  S
C1967      H1972   1.110       .  S
C1967      H1973   1.110       .  S
C1970      H1974   1.109       .  S
C1970      H1975   1.106       .  S
C1970      H1976   1.110       .  S
C1977      C1978   1.412       .  A
C1977      C1982   1.420       .  A
C1977      H1984   1.083       .  S
C1978      C1979   1.409       .  A
C1979      C1980   1.411       .  A
C1979      C1986   1.506       .  S
C1980      C1981   1.414       .  A
C1980      H1985   1.083       .  S
C1981      C1982   1.416       .  A
C1982      C1983   1.505       .  S
C1983      H1987   1.111       .  S
C1983      H1988   1.110       .  S
C1983      H1989   1.110       .  S
C1986      H1990   1.110       .  S
C1986      H1991   1.110       .  S
C1986      H1992   1.111       .  S
C1993      C1994   1.398       .  A
C1993      C1998   1.401       .  A
C1993      H2000   1.085       .  S
C1994      C1995   1.412       .  A
C1995      C1996   1.397       .  A
C1995      C2002   1.508       .  S
C1996      C1997   1.401       .  A
C1996      H2001   1.085       .  S
C1997      C1998   1.418       .  A
C1998      C1999   1.508       .  S
C1999      H2003   1.111       .  S
C1999      H2004   1.110       .  S
C1999      H2005   1.110       .  S
C2002      H2006   1.108       .  S
C2002      H2007   1.111       .  S
C2002      H2008   1.111       .  S
C2009      C2010   1.400   1_455  A
C2009      C2014   1.403       .  A
C2009      H2016   1.084       .  S
C2010      C2011   1.409       .  A
C2011      C2012   1.398   1_655  A
C2011      C2018   1.508       .  S
C2012      C2013   1.407       .  A
C2012      H2017   1.084   1_455  S
C2013      C2014   1.415       .  A
C2014      C2015   1.507       .  S
C2015      H2019   1.110       .  S
C2015      H2020   1.110       .  S
C2015      H2021   1.108       .  S
C2018      H2022   1.111       .  S
C2018      H2023   1.109       .  S
C2018      H2024   1.111       .  S
C2025      C2026   1.411       .  A
C2025      C2030   1.403       .  A
C2025      H2032   1.085       .  S
C2026      C2027   1.411       .  A
C2027      C2028   1.405       .  A
C2027      C2034   1.508   1_556  S
C2028      C2029   1.407       .  A
C2028      H2033   1.084   1_556  S
C2029      C2030   1.406       .  A
C2030      C2031   1.507       .  S
C2031      H2035   1.111       .  S
C2031      H2036   1.110       .  S
C2031      H2037   1.110       .  S
C2034      H2038   1.110       .  S
C2034      H2039   1.110   1_554  S
C2034      H2040   1.111       .  S
C2041      C2042   1.408       .  A
C2041      C2046   1.406       .  A
C2041      H2048   1.084       .  S
C2042      C2043   1.424   1_554  A
C2043      C2044   1.407       .  A
C2043      C2050   1.508       .  S
C2044      C2045   1.399       .  A
C2044      H2049   1.085       .  S
C2045      C2046   1.413   1_556  A
C2046      C2047   1.508   1_565  S
C2047      H2051   1.111       .  S
C2047      H2052   1.110       .  S
C2047      H2053   1.109       .  S
C2050      H2054   1.110       .  S
C2050      H2055   1.110       .  S
C2050      H2056   1.111       .  S
C2057      C2058   1.411       .  A
C2057      C2062   1.417       .  A
C2057      H2064   1.084   1_556  S
C2058      C2059   1.407       .  A
C2059      C2060   1.396       .  A
C2059      C2066   1.510       .  S
C2060      C2061   1.405       .  A
C2060      H2065   1.077       .  S
C2061      C2062   1.411       .  A
C2062      C2063   1.503   1_556  S
C2063      H2067   1.111       .  S
C2063      H2068   1.110       .  S
C2063      H2069   1.107       .  S
C2066      H2070   1.110       .  S
C2066      H2071   1.108       .  S
C2066      H2072   1.109       .  S
C2073      C2074   1.407       .  A
C2073      C2078   1.399       .  A
C2073      H2080   1.084       .  S
C2074      C2075   1.416       .  A
C2075      C2076   1.399       .  A
C2075      C2082   1.510       .  S
C2076      C2077   1.401       .  A
C2076      H2081   1.086       .  S
C2077      C2078   1.407       .  A
C2078      C2079   1.508       .  S
C2079      H2083   1.111       .  S
C2079      H2084   1.110       .  S
C2079      H2085   1.110       .  S
C2082      H2086   1.106       .  S
C2082      H2087   1.111       .  S
C2082      H2088   1.110       .  S
C2089      C2090   1.403       .  A
C2089      C2094   1.398       .  A
C2089      H2096   1.084       .  S
C2090      C2091   1.420       .  A
C2091      C2092   1.399       .  A
C2091      C2098   1.509       .  S
C2092      C2093   1.396       .  A
C2092      H2097   1.085       .  S
C2093      C2094   1.410       .  A
C2094      C2095   1.507       .  S
C2095      H2099   1.111       .  S
C2095      H2100   1.109       .  S
C2095      H2101   1.109       .  S
C2098      H2102   1.110       .  S
C2098      H2103   1.108       .  S
C2098      H2104   1.111       .  S
C2105      C2106   1.409   1_655  A
C2105      C2110   1.411       .  A
C2105      H2112   1.083   1_655  S
C2106      C2107   1.410   1_455  A
C2107      C2108   1.411       .  A
C2107      C2114   1.504   1_655  S
C2108      C2109   1.408       .  A
C2108      H2113   1.082       .  S
C2109      C2110   1.412       .  A
C2110      C2111   1.506       .  S
C2111      H2115   1.110       .  S
C2111      H2116   1.110       .  S
C2111      H2117   1.108       .  S
C2114      H2118   1.110       .  S
C2114      H2119   1.108       .  S
C2114      H2120   1.111   1_455  S
C2121      C2122   1.407       .  A
C2121      C2126   1.410       .  A
C2121      H2128   1.083       .  S
C2122      C2123   1.406       .  A
C2123      C2124   1.406       .  A
C2123      C2130   1.504       .  S
C2124      C2125   1.411       .  A
C2124      H2129   1.082       .  S
C2125      C2126   1.414       .  A
C2126      C2127   1.507       .  S
C2127      H2131   1.111       .  S
C2127      H2132   1.110       .  S
C2127      H2133   1.109       .  S
C2130      H2134   1.110       .  S
C2130      H2135   1.108       .  S
C2130      H2136   1.111       .  S
C2137      C2138   1.413       .  A
C2137      C2142   1.413       .  A
C2137      H2144   1.084       .  S
C2138      C2139   1.405       .  A
C2139      C2140   1.401       .  A
C2139      C2146   1.508       .  S
C2140      C2141   1.414       .  A
C2140      H2145   1.083   1_545  S
C2141      C2142   1.411       .  A
C2142      C2143   1.504       .  S
C2143      H2147   1.111       .  S
C2143      H2148   1.110       .  S
C2143      H2149   1.110       .  S
C2146      H2150   1.110       .  S
C2146      H2151   1.111   1_545  S
C2146      H2152   1.111   1_545  S
C2153      C2154   1.404       .  A
C2153      C2158   1.399       .  A
C2153      H2160   1.085       .  S
C2154      C2155   1.408   1_565  A
C2155      C2156   1.406       .  A
C2155      C2162   1.503   1_554  S
C2156      C2157   1.412       .  A
C2156      H2161   1.084       .  S
C2157      C2158   1.420   1_545  A
C2158      C2159   1.509       .  S
C2159      H2163   1.111       .  S
C2159      H2164   1.110       .  S
C2159      H2165   1.106       .  S
C2162      H2166   1.110       .  S
C2162      H2167   1.108       .  S
C2162      H2168   1.111   1_556  S
C2169      C2170   1.395       .  A
C2169      C2174   1.400       .  A
C2169      H2176   1.085       .  S
C2170      C2171   1.409   1_455  A
C2171      C2172   1.397   1_654  A
C2171      C2178   1.506       .  S
C2172      C2173   1.405       .  A
C2172      H2177   1.083   1_455  S
C2173      C2174   1.426   1_556  A
C2174      C2175   1.509       .  S
C2175      H2179   1.111       .  S
C2175      H2180   1.110       .  S
C2175      H2181   1.110   1_554  S
C2178      H2182   1.107       .  S
C2178      H2183   1.110       .  S
C2178      H2184   1.109   1_554  S
C2185      C2186   1.406       .  A
C2185      C2190   1.414       .  A
C2185      H2192   1.084       .  S
C2186      C2187   1.430       .  A
C2187      C2188   1.411       .  A
C2187      C2194   1.511       .  S
C2188      C2189   1.400       .  A
C2188      H2193   1.084       .  S
C2189      C2190   1.418       .  A
C2190      C2191   1.503       .  S
C2191      H2195   1.105       .  S
C2191      H2196   1.110       .  S
C2191      H2197   1.107       .  S
C2194      H2198   1.110       .  S
C2194      H2199   1.107       .  S
C2194      H2200   1.111       .  S
C2201      C2202   1.411       .  A
C2201      C2206   1.403       .  A
C2201      H2208   1.084       .  S
C2202      C2203   1.410       .  A
C2203      C2204   1.408       .  A
C2203      C2210   1.506       .  S
C2204      C2205   1.415       .  A
C2204      H2209   1.083       .  S
C2205      C2206   1.415       .  A
C2206      C2207   1.509       .  S
C2207      H2211   1.111       .  S
C2207      H2212   1.110       .  S
C2207      H2213   1.110       .  S
C2210      H2214   1.110       .  S
C2210      H2215   1.110       .  S
C2210      H2216   1.111       .  S
C2217      C2218   1.405       .  A
C2217      C2222   1.408       .  A
C2217      H2224   1.084       .  S
C2218      C2219   1.405       .  A
C2219      C2220   1.400       .  A
C2219      C2226   1.508       .  S
C2220      C2221   1.410       .  A
C2220      H2225   1.083       .  S
C2221      C2222   1.415       .  A
C2222      C2223   1.506       .  S
C2223      H2227   1.111       .  S
C2223      H2228   1.105       .  S
C2223      H2229   1.110       .  S
C2226      H2230   1.110       .  S
C2226      H2231   1.111       .  S
C2226      H2232   1.111       .  S
C2233      C2234   1.403       .  A
C2233      C2238   1.397       .  A
C2233      H2240   1.084       .  S
C2234      C2235   1.416       .  A
C2235      C2236   1.395       .  A
C2235      C2242   1.510       .  S
C2236      C2237   1.397       .  A
C2236      H2241   1.085       .  S
C2237      C2238   1.408       .  A
C2238      C2239   1.503       .  S
C2239      H2243   1.111       .  S
C2239      H2244   1.102       .  S
C2239      H2245   1.110       .  S
C2242      H2246   1.110       .  S
C2242      H2247   1.111       .  S
C2242      H2248   1.111       .  S
C2249      C2250   1.403       .  A
C2249      C2254   1.398       .  A
C2249      H2256   1.085       .  S
C2250      C2251   1.414       .  A
C2251      C2252   1.410       .  A
C2251      C2258   1.506       .  S
C2252      C2253   1.410       .  A
C2252      H2257   1.084       .  S
C2253      C2254   1.421       .  A
C2254      C2255   1.512       .  S
C2255      H2259   1.111       .  S
C2255      H2260   1.108       .  S
C2255      H2261   1.110       .  S
C2258      H2262   1.108       .  S
C2258      H2263   1.111       .  S
C2258      H2264   1.111       .  S
C2265      C2266   1.400       .  A
C2265      C2270   1.412       .  A
C2265      H2272   1.082       .  S
C2266      C2267   1.418       .  A
C2267      C2268   1.398       .  A
C2267      C2274   1.501       .  S
C2268      C2269   1.396       .  A
C2268      H2273   1.085       .  S
C2269      C2270   1.420       .  A
C2270      C2271   1.502       .  S
C2271      H2275   1.111       .  S
C2271      H2276   1.110       .  S
C2271      H2277   1.105       .  S
C2274      H2278   1.110       .  S
C2274      H2279   1.108       .  S
C2274      H2280   1.110       .  S
C2281      C2282   1.395       .  A
C2281      C2286   1.402       .  A
C2281      H2288   1.084       .  S
C2282      C2283   1.415       .  A
C2283      C2284   1.413       .  A
C2283      C2290   1.506       .  S
C2284      C2285   1.406       .  A
C2284      H2289   1.084       .  S
C2285      C2286   1.423       .  A
C2286      C2287   1.503       .  S
C2287      H2291   1.110       .  S
C2287      H2292   1.103       .  S
C2287      H2293   1.109       .  S
C2290      H2294   1.110       .  S
C2290      H2295   1.109       .  S
C2290      H2296   1.111       .  S
C2297      C2298   1.395       .  A
C2297      C2302   1.408   1_655  A
C2297      H2304   1.085       .  S
C2298      C2299   1.418       .  A
C2299      C2300   1.414   1_655  A
C2299      C2306   1.505       .  S
C2300      C2301   1.407       .  A
C2300      H2305   1.084       .  S
C2301      C2302   1.436       .  A
C2302      C2303   1.513       .  S
C2303      H2307   1.111       .  S
C2303      H2308   1.109       .  S
C2303      H2309   1.110       .  S
C2306      H2310   1.110       .  S
C2306      H2311   1.110       .  S
C2306      H2312   1.108       .  S
C2313      C2314   1.400       .  A
C2313      C2318   1.393       .  A
C2313      H2320   1.084       .  S
C2314      C2315   1.413       .  A
C2315      C2316   1.405       .  A
C2315      C2322   1.506       .  S
C2316      C2317   1.404       .  A
C2316      H2321   1.084       .  S
C2317      C2318   1.414       .  A
C2318      C2319   1.510       .  S
C2319      H2323   1.111       .  S
C2319      H2324   1.110       .  S
C2319      H2325   1.109       .  S
C2322      H2326   1.110       .  S
C2322      H2327   1.108       .  S
C2322      H2328   1.111       .  S
C2329      C2330   1.401       .  A
C2329      C2334   1.396       .  A
C2329      H2336   1.085       .  S
C2330      C2331   1.411       .  A
C2331      C2332   1.406       .  A
C2331      C2338   1.500       .  S
C2332      C2333   1.404       .  A
C2332      H2337   1.084       .  S
C2333      C2334   1.415       .  A
C2334      C2335   1.509       .  S
C2335      H2339   1.111       .  S
C2335      H2340   1.107       .  S
C2335      H2341   1.110       .  S
C2338      H2342   1.109       .  S
C2338      H2343   1.109       .  S
C2338      H2344   1.110       .  S
C2345      C2346   1.409       .  A
C2345      C2350   1.415   1_655  A
C2345      H2352   1.083       .  S
C2346      C2347   1.410       .  A
C2347      C2348   1.407   1_655  A
C2347      C2354   1.503       .  S
C2348      C2349   1.411       .  A
C2348      H2353   1.084       .  S
C2349      C2350   1.418       .  A
C2350      C2351   1.506       .  S
C2351      H2355   1.111       .  S
C2351      H2356   1.110       .  S
C2351      H2357   1.109       .  S
C2354      H2358   1.110       .  S
C2354      H2359   1.109       .  S
C2354      H2360   1.110       .  S
C2361      C2362   1.410       .  A
C2361      C2366   1.405       .  A
C2361      H2368   1.083       .  S
C2362      C2363   1.416       .  A
C2363      C2364   1.407       .  A
C2363      C2370   1.506       .  S
C2364      C2365   1.408       .  A
C2364      H2369   1.084       .  S
C2365      C2366   1.411       .  A
C2366      C2367   1.507       .  S
C2367      H2371   1.111       .  S
C2367      H2372   1.110       .  S
C2367      H2373   1.110       .  S
C2370      H2374   1.108       .  S
C2370      H2375   1.110       .  S
C2370      H2376   1.111       .  S
C2377      C2378   1.401       .  A
C2377      C2382   1.406       .  A
C2377      H2384   1.083       .  S
C2378      C2379   1.421       .  A
C2379      C2380   1.408       .  A
C2379      C2386   1.500       .  S
C2380      C2381   1.395       .  A
C2380      H2385   1.080   1_565  S
C2381      C2382   1.413       .  A
C2382      C2383   1.505       .  S
C2383      H2387   1.110       .  S
C2383      H2388   1.108   1_565  S
C2383      H2389   1.110       .  S
C2386      H2390   1.104       .  S
C2386      H2391   1.110       .  S
C2386      H2392   1.111       .  S
C2393      C2394   1.404       .  A
C2393      C2398   1.398       .  A
C2393      H2400   1.084       .  S
C2394      C2395   1.421       .  A
C2395      C2396   1.402       .  A
C2395      C2402   1.507       .  S
C2396      C2397   1.396       .  A
C2396      H2401   1.085       .  S
C2397      C2398   1.410       .  A
C2398      C2399   1.508   1_655  S
C2399      H2403   1.111       .  S
C2399      H2404   1.109       .  S
C2399      H2405   1.111       .  S
C2402      H2406   1.108       .  S
C2402      H2407   1.109       .  S
C2402      H2408   1.111       .  S
C2409      C2410   1.399       .  A
C2409      C2414   1.402       .  A
C2409      H2416   1.083       .  S
C2410      C2411   1.414       .  A
C2411      C2412   1.393       .  A
C2411      C2418   1.510       .  S
C2412      C2413   1.400       .  A
C2412      H2417   1.084       .  S
C2413      C2414   1.419       .  A
C2414      C2415   1.508       .  S
C2415      H2419   1.111       .  S
C2415      H2420   1.110       .  S
C2415      H2421   1.110       .  S
C2418      H2422   1.110       .  S
C2418      H2423   1.110       .  S
C2418      H2424   1.108       .  S
C2425      C2426   1.400       .  A
C2425      C2430   1.409       .  A
C2425      H2432   1.083       .  S
C2426      C2427   1.416       .  A
C2427      C2428   1.414       .  A
C2427      C2434   1.503       .  S
C2428      C2429   1.407       .  A
C2428      H2433   1.084       .  S
C2429      C2430   1.424       .  A
C2430      C2431   1.502       .  S
C2431      H2435   1.111       .  S
C2431      H2436   1.106       .  S
C2431      H2437   1.110       .  S
C2434      H2438   1.109       .  S
C2434      H2439   1.110       .  S
C2434      H2440   1.106       .  S
C2441      C2442   1.394       .  A
C2441      C2446   1.401       .  A
C2441      H2448   1.085       .  S
C2442      C2443   1.414       .  A
C2443      C2444   1.405       .  A
C2443      C2450   1.507       .  S
C2444      C2445   1.400       .  A
C2444      H2449   1.084       .  S
C2445      C2446   1.420       .  A
C2446      C2447   1.500       .  S
C2447      H2451   1.111       .  S
C2447      H2452   1.107       .  S
C2447      H2453   1.109       .  S
C2450      H2454   1.108       .  S
C2450      H2455   1.110       .  S
C2450      H2456   1.111       .  S
C2457      C2458   1.415       .  A
C2457      C2462   1.418       .  A
C2457      H2464   1.083       .  S
C2458      C2459   1.411       .  A
C2459      C2460   1.417       .  A
C2459      C2466   1.505       .  S
C2460      C2461   1.415       .  A
C2460      H2465   1.081       .  S
C2461      C2462   1.412       .  A
C2462      C2463   1.504       .  S
C2463      H2467   1.111       .  S
C2463      H2468   1.110       .  S
C2463      H2469   1.110       .  S
C2466      H2470   1.110       .  S
C2466      H2471   1.110       .  S
C2466      H2472   1.111       .  S
C2473      C2474   1.416       .  A
C2473      C2478   1.410       .  A
C2473      H2480   1.084       .  S
C2474      C2475   1.413       .  A
C2475      C2476   1.404       .  A
C2475      C2482   1.509       .  S
C2476      C2477   1.415       .  A
C2476      H2481   1.083       .  S
C2477      C2478   1.413       .  A
C2478      C2479   1.507       .  S
C2479      H2483   1.111       .  S
C2479      H2484   1.110       .  S
C2479      H2485   1.110       .  S
C2482      H2486   1.109       .  S
C2482      H2487   1.110       .  S
C2482      H2488   1.111       .  S
C2489      C2490   1.400       .  A
C2489      C2494   1.404       .  A
C2489      H2496   1.082       .  S
C2490      C2491   1.409       .  A
C2491      C2492   1.397       .  A
C2491      C2498   1.509       .  S
C2492      C2493   1.407       .  A
C2492      H2497   1.084       .  S
C2493      C2494   1.417       .  A
C2494      C2495   1.507       .  S
C2495      H2499   1.111       .  S
C2495      H2500   1.108       .  S
C2495      H2501   1.110       .  S
C2498      H2502   1.109       .  S
C2498      H2503   1.111       .  S
C2498      H2504   1.111       .  S
C2505      C2506   1.397       .  A
C2505      C2510   1.398       .  A
C2505      H2512   1.084       .  S
C2506      C2507   1.417       .  A
C2507      C2508   1.398       .  A
C2507      C2514   1.511       .  S
C2508      C2509   1.398       .  A
C2508      H2513   1.085       .  S
C2509      C2510   1.417       .  A
C2510      C2511   1.509       .  S
C2511      H2515   1.111       .  S
C2511      H2516   1.110       .  S
C2511      H2517   1.110       .  S
C2514      H2518   1.111       .  S
C2514      H2519   1.108       .  S
C2514      H2520   1.111       .  S
