geometry optimzed in LAMMPS
_audit_creation_date              2020-12-01 
_audit_creation_method            'lammps2cif' 
_symmetry_space_group_name_H-M    'P1' 
_symmetry_Int_Tables_number       1 
_symmetry_cell_setting            triclinic 
loop_ 
_symmetry_equiv_pos_as_xyz 
  x,y,z 
_cell_length_a                    52.78552006 
_cell_length_b                    52.625761300989275 
_cell_length_c                    28.96095621783524 
_cell_angle_alpha                 89.91112998260644 
_cell_angle_beta                  90.26491816703978 
_cell_angle_gamma                 89.88484937443101 
loop_ 
_atom_site_label 
_atom_site_type_symbol 
_atom_site_fract_x 
_atom_site_fract_y 
_atom_site_fract_z 
_atom_site_charge 
O1          O  0.40643883  0.90918674  0.87571773    -0.84700
O2          O  0.45343382  0.90668171  0.83324616    -0.81700
C3          C  0.47141671  0.89898888  0.80835028     0.98800
O4          O  0.46927033  0.87823196  0.78682893    -0.81700
O5          O  0.46094810  0.83983812  0.85274981    -0.84400
C6          C  0.44895328  0.82809258  0.88405439     1.03300
O7          O  0.42500300  0.82668998  0.88278648    -0.77200
O8          O  0.40876019  0.87281090  0.91212746    -0.77300
C9          C  0.40613281  0.89656210  0.91279863     1.03300
O10         O  0.38291549  0.89819651  0.78976685    -0.84700
O11         O  0.42882858  0.89899183  0.74655710    -0.81700
C12         C  0.42702500  0.88114079  0.71761747     0.98800
O13         O  0.42934341  0.85825066  0.73092178    -0.81800
O14         O  0.42573670  0.81665428  0.79106371    -0.84400
C15         C  0.40236011  0.81169082  0.79259868     1.03300
O16         O  0.38730942  0.82753426  0.81031178    -0.77200
O17         O  0.36897625  0.87331038  0.84475736    -0.77300
C18         C  0.36482881  0.88937746  0.81303009     1.03300
Cr19       Cr  0.41817841  0.90046774  0.81234234     1.93700
Cr20       Cr  0.44448552  0.84959494  0.79273394     1.93200
Cr21       Cr  0.39921597  0.85137449  0.85911929     1.39100
O22         O  0.42053525  0.86718923  0.82155943    -1.22400
O23         O  0.41269446  0.62397096  0.13888549    -0.84700
O24         O  0.46111498  0.62505125  0.18024448    -0.81700
C25         C  0.47979635  0.63286146  0.20372156     0.98800
O26         O  0.47850303  0.65399276  0.22457181    -0.81700
O27         O  0.47051969  0.69327350  0.16002805    -0.84400
C28         C  0.45842482  0.70596631  0.12990896     1.03300
O29         O  0.43446125  0.70604331  0.12898471    -0.77200
O30         O  0.41827916  0.65943278  0.10101468    -0.77300
C31         C  0.41285374  0.63618293  0.10119013     1.03300
O32         O  0.39177282  0.63763601  0.22628478    -0.84700
O33         O  0.43846345  0.63465455  0.26699468    -0.81700
C34         C  0.43693863  0.65283199  0.29529512     0.98800
O35         O  0.43922250  0.67546686  0.28117880    -0.81800
O36         O  0.43556936  0.71652647  0.22059383    -0.84400
C37         C  0.41222665  0.72158810  0.21708847     1.03300
O38         O  0.39722201  0.70535943  0.20071586    -0.77200
O39         O  0.37839067  0.66023923  0.16761474    -0.77300
C40         C  0.37379693  0.64641999  0.20234582     1.03300
Cr41       Cr  0.42638509  0.63294194  0.20185290     1.93700
Cr42       Cr  0.45416058  0.68335338  0.21945466     1.93200
Cr43       Cr  0.40879703  0.68151565  0.15271859     1.39100
O44         O  0.42994905  0.66590514  0.19090174    -1.22400
O45         O  0.34859689  0.58685005  0.59958595    -0.84700
O46         O  0.30228616  0.57056427  0.62841067    -0.81700
C47         C  0.30280622  0.54650713  0.62887678     0.98800
O48         O  0.31510476  0.53453019  0.65962869    -0.81700
O49         O  0.35428075  0.52675348  0.72312597    -0.84400
C50         C  0.37466124  0.52474763  0.70057046     1.03300
O51         O  0.38280145  0.54351617  0.67761100    -0.77200
O52         O  0.38415805  0.59230333  0.63714350    -0.77300
C53         C  0.37173579  0.59245726  0.59964404     1.03300
O54         O  0.34821369  0.62680318  0.66666928    -0.84700
O55         O  0.30391857  0.60835399  0.70059240    -0.81700
C56         C  0.28839151  0.59373927  0.71981601     0.98800
O57         O  0.29258640  0.57013390  0.72109198    -0.81800
O58         O  0.33382393  0.56677412  0.77953452    -0.84400
C59         C  0.35641379  0.56912891  0.79345549     1.03300
O60         O  0.37446246  0.56643900  0.76537191    -0.77200
O61         O  0.37107562  0.61340523  0.72503743    -0.77300
C62         C  0.36119333  0.63144204  0.70247631     1.03300
Cr63       Cr  0.32695082  0.59639319  0.65177668     1.93700
Cr64       Cr  0.32536157  0.55125870  0.71866554     1.93200
Cr65       Cr  0.37564714  0.57854573  0.70005085     1.39100
O66         O  0.34270936  0.57520027  0.68957907    -1.22400
O67         O  0.13568290  0.59042317  0.40270021    -0.84700
O68         O  0.18212243  0.57482017  0.37436369    -0.81700
C69         C  0.18139492  0.55085708  0.37798144     0.98800
O70         O  0.16883373  0.53768158  0.34932377    -0.81700
O71         O  0.13015162  0.52702141  0.28432837    -0.84400
C72         C  0.10895592  0.52589806  0.30448209     1.03300
O73         O  0.10108572  0.54489563  0.32684573    -0.77200
O74         O  0.09938585  0.59321135  0.36606309    -0.77300
C75         C  0.11205189  0.59360477  0.40326436     1.03300
O76         O  0.13413141  0.62920030  0.33393625    -0.84700
O77         O  0.17952850  0.61030091  0.29881834    -0.81700
C78         C  0.19566171  0.59491738  0.28301470     0.98800
O79         O  0.19132715  0.57130619  0.28427133    -0.81800
O80         O  0.15047198  0.56500343  0.22497487    -0.84400
C81         C  0.12787555  0.56686315  0.21058171     1.03300
O82         O  0.10966710  0.56703798  0.23872101    -0.77200
O83         O  0.11093863  0.61452678  0.27723196    -0.77300
C84         C  0.11903758  0.63301042  0.30060397     1.03300
Cr85       Cr  0.15662973  0.59943674  0.34930266     1.93700
Cr86       Cr  0.15876159  0.55210460  0.28790034     1.93200
Cr87       Cr  0.10796717  0.57966323  0.30331126     1.39100
O88         O  0.14102561  0.57701189  0.31370154    -1.22400
O89         O  0.04441527  0.90713379  0.12733501    -0.84700
O90         O  0.01598081  0.90832917  0.20713683    -0.81700
C91         C  0.99519265  0.89698297  0.20196670     0.98800
O92         O  0.99483062  0.87351673  0.19245773    -0.81700
O93         O  0.01437465  0.82629759  0.16103266    -0.84400
C94         C  0.02138796  0.82669940  0.11897688     1.03300
O95         O  0.03915683  0.84109122  0.10641497    -0.77200
O96         O  0.07348178  0.88004616  0.10565557    -0.77300
C97         C  0.06016370  0.89957838  0.09789250     1.03300
O98         O  0.08921406  0.89927626  0.18307961    -0.84700
O99         O  0.05907594  0.89452130  0.25831433    -0.81700
C100        C  0.04319637  0.88584112  0.28646579     0.98800
O101        O  0.02598079  0.87055054  0.27341660    -0.81800
O102        O  0.04602164  0.82469955  0.24266941    -0.84400
C103        C  0.06041724  0.81059729  0.21923554     1.03300
O104        O  0.06640036  0.81683675  0.17870158    -0.77200
O105        O  0.09798205  0.85867367  0.18494128    -0.77300
C106        C  0.10498301  0.88147214  0.18942116     1.03300
Cr107      Cr  0.05164091  0.89958734  0.19302162     1.93700
Cr108      Cr  0.02228248  0.85008890  0.21470102     1.93200
Cr109      Cr  0.06753201  0.85041029  0.14709860     1.39100
O110        O  0.04691025  0.86657760  0.18511071    -1.22400
O111        O  0.07279286  0.61579582  0.86363740    -0.84700
O112        O  0.02429946  0.61686529  0.82433225    -0.81700
C113        C  0.00514265  0.62474433  0.80218776     0.98800
O114        O  0.00575293  0.64624323  0.78238185    -0.81700
O115        O  0.01333105  0.68453971  0.84858146    -0.84400
C116        C  0.02535386  0.69662433  0.87945531     1.03300
O117        O  0.04929376  0.69734419  0.87947122    -0.77200
O118        O  0.06658405  0.65043386  0.90391100    -0.77300
C119        C  0.07256831  0.62733714  0.90189321     1.03300
O120        O  0.09285251  0.63188231  0.77664572    -0.84700
O121        O  0.04565806  0.62832684  0.73702211    -0.81700
C122        C  0.04652966  0.64733116  0.71047659     0.98800
O123        O  0.04420920  0.66953253  0.72630968    -0.81800
O124        O  0.04750918  0.70943581  0.78747883    -0.84400
C125        C  0.07091759  0.71441771  0.78929153     1.03300
O126        O  0.08613938  0.69870587  0.80687191    -0.77200
O127        O  0.10575631  0.65354698  0.83671929    -0.77300
C128        C  0.11059135  0.64133768  0.80031377     1.03300
Cr129      Cr  0.05850202  0.62577570  0.80177972     1.93700
Cr130      Cr  0.02946504  0.67599170  0.78827442     1.93200
Cr131      Cr  0.07521352  0.67379009  0.85364797     1.39100
O132        O  0.05423100  0.65846596  0.81502454    -1.22400
O133        O  0.34005287  0.93780577  0.40160694    -0.84700
O134        O  0.29430923  0.95545476  0.37125285    -0.81700
C135        C  0.29629980  0.97902825  0.37865867     0.98800
O136        O  0.30879673  0.99308069  0.35154705    -0.81700
O137        O  0.34775505  0.00501572  0.28854841    -0.84400
C138        C  0.36900278  0.00520954  0.30916625     1.03300
O139        O  0.37619522  0.98571287  0.33115140    -0.77200
O140        O  0.37674543  0.93598844  0.36652414    -0.77300
C141        C  0.36365571  0.93413790  0.40302054     1.03300
O142        O  0.34149102  0.90205127  0.32853407    -0.84700
O143        O  0.29755960  0.92237559  0.29273177    -0.81700
C144        C  0.28150744  0.93796997  0.27714569     0.98800
O145        O  0.28530998  0.96159527  0.28202124    -0.81800
O146        O  0.32681199  0.96858506  0.22622065    -0.84400
C147        C  0.34939464  0.96658823  0.21251588     1.03300
O148        O  0.36769637  0.96641963  0.24082886    -0.77200
O149        O  0.36547836  0.91809240  0.27472749    -0.77300
C150        C  0.35623523  0.89906820  0.29487353     1.03300
Cr151      Cr  0.31957765  0.93128854  0.34583299     1.93700
Cr152      Cr  0.31849102  0.98031838  0.28920736     1.93200
Cr153      Cr  0.36892068  0.95180245  0.30442674     1.39100
O154        O  0.33583032  0.95459768  0.31361441    -1.22400
O155        O  0.11916778  0.92165383  0.60709537    -0.84700
O156        O  0.15596490  0.95898659  0.60811487    -0.81700
C157        C  0.16990577  0.97689311  0.62210149     0.98800
O158        O  0.17020852  0.98324195  0.66450305    -0.81700
O159        O  0.12287604  0.00195779  0.69334359    -0.84400
C160        C  0.09923534  0.00097904  0.69987338     1.03300
O161        O  0.08817508  0.97995732  0.70453964    -0.77200
O162        O  0.09143047  0.95043131  0.62669524    -0.77300
C163        C  0.09936567  0.93429195  0.59828557     1.03300
O164        O  0.14151039  0.89984487  0.68808524    -0.84700
O165        O  0.18154774  0.93365046  0.68054524    -0.81700
C166        C  0.18724484  0.93953568  0.72143369     0.98800
O167        O  0.17150095  0.95150759  0.74581181    -0.81800
O168        O  0.12527780  0.97134350  0.77440435    -0.84400
C169        C  0.11001789  0.95411243  0.78701273     1.03300
O170        O  0.10192506  0.93781499  0.75888266    -0.77200
O171        O  0.10060270  0.90656443  0.68472565    -0.77300
C172        C  0.11912433  0.89200007  0.69354376     1.03300
Cr173      Cr  0.14818669  0.93008479  0.64892170     1.93700
Cr174      Cr  0.14627487  0.97501881  0.71693203     1.93200
Cr175      Cr  0.09813497  0.94425551  0.69287629     1.39100
O176        O  0.13087759  0.95006226  0.68644722    -1.22400
O177        O  0.60704410  0.44500502  0.39054615    -0.84700
O178        O  0.60601425  0.49206014  0.34510819    -0.81700
C179        C  0.61282705  0.51017688  0.31931509     0.98800
O180        O  0.63360699  0.50867104  0.29794639    -0.81700
O181        O  0.67408786  0.49978686  0.35978777    -0.84400
C182        C  0.68835471  0.48742610  0.38701142     1.03300
O183        O  0.68979983  0.46352286  0.38444083    -0.77200
O184        O  0.64465699  0.44878588  0.42218663    -0.77300
C185        C  0.62112313  0.44554866  0.42615484     1.03300
O186        O  0.61553356  0.42094071  0.30251612    -0.84700
O187        O  0.61168263  0.46716537  0.25901086    -0.81700
C188        C  0.62867729  0.46801153  0.22839789     0.98800
O189        O  0.65185451  0.46984548  0.23947747    -0.81800
O190        O  0.69515290  0.46454242  0.29437471    -0.84400
C191        C  0.69933398  0.44083519  0.29518732     1.03300
O192        O  0.68353741  0.42618255  0.31378705    -0.77200
O193        O  0.64091914  0.40806856  0.35746536    -0.77300
C194        C  0.62543791  0.40306169  0.32540505     1.03300
Cr195      Cr  0.61274064  0.45653472  0.32510002     1.93700
Cr196      Cr  0.66246266  0.48391931  0.30051197     1.93200
Cr197      Cr  0.66329879  0.43838699  0.36644916     1.39100
O198        O  0.64601335  0.45969844  0.33079481    -1.22400
O199        O  0.88464545  0.42484271  0.65515898    -0.84700
O200        O  0.88353598  0.47381324  0.69055687    -0.81700
C201        C  0.87624258  0.49331116  0.71201956     0.98800
O202        O  0.85568062  0.49278915  0.73444911    -0.81700
O203        O  0.81575829  0.48231928  0.67343087    -0.84400
C204        C  0.80161061  0.46945376  0.64703120     1.03300
O205        O  0.80167093  0.44542604  0.64897164    -0.77200
O206        O  0.84879187  0.42955308  0.61779064    -0.77300
C207        C  0.87227667  0.42491013  0.61759109     1.03300
O208        O  0.87253265  0.40608494  0.74538600    -0.84700
O209        O  0.87633544  0.45402136  0.78120447    -0.81700
C210        C  0.85853494  0.45350568  0.81019784     0.98800
O211        O  0.83582951  0.45514059  0.79667314    -0.81800
O212        O  0.79429257  0.44864859  0.74071591    -0.84400
C213        C  0.79031201  0.42494919  0.74228373     1.03300
O214        O  0.80545017  0.40975023  0.72310567    -0.77200
O215        O  0.85018121  0.39132843  0.68752059    -0.77300
C216        C  0.86390579  0.38759763  0.72275178     1.03300
Cr217      Cr  0.87670969  0.43996221  0.71709550     1.93700
Cr218      Cr  0.82671922  0.46797395  0.73411319     1.93200
Cr219      Cr  0.82775661  0.42080831  0.67201761     1.39100
O220        O  0.84373507  0.44301666  0.70743511    -1.22400
O221        O  0.91804296  0.36545973  0.11851628    -0.84700
O222        O  0.93463163  0.31886738  0.14529356    -0.81700
C223        C  0.95854893  0.31976805  0.14303437     0.98800
O224        O  0.97126474  0.33213402  0.17261630    -0.81700
O225        O  0.98055093  0.37094669  0.23786785    -0.84400
C226        C  0.98106395  0.39207435  0.21659682     1.03300
O227        O  0.96175496  0.39937680  0.19454993    -0.77200
O228        O  0.91359581  0.40110672  0.15632829    -0.77300
C229        C  0.91396166  0.38901358  0.11854304     1.03300
O230        O  0.87934162  0.36463919  0.18725610    -0.84700
O231        O  0.89877728  0.31907648  0.21956920    -0.81700
C232        C  0.91415449  0.30275711  0.23504745     0.98800
O233        O  0.93766129  0.30769981  0.23577987    -0.81800
O234        O  0.94244171  0.34850159  0.29617224    -0.84400
C235        C  0.94029286  0.37088617  0.31146042     1.03300
O236        O  0.94078908  0.38965488  0.28407441    -0.77200
O237        O  0.89349954  0.38741454  0.24492427    -0.77300
C238        C  0.87523779  0.37881190  0.22162964     1.03300
Cr239      Cr  0.90938257  0.34325017  0.17075119     1.93700
Cr240      Cr  0.95618296  0.34124678  0.23363534     1.93200
Cr241      Cr  0.92775494  0.39174548  0.21890647     1.39100
O242        O  0.93114223  0.35878015  0.20755498    -1.22400
O243        O  0.89620899  0.14304350  0.93278897    -0.84700
O244        O  0.93556069  0.17680256  0.92878957    -0.81700
C245        C  0.95402320  0.18932744  0.91325400     0.98800
O246        O  0.95823198  0.18998427  0.86998539    -0.81700
O247        O  0.97036257  0.14161311  0.83593845    -0.84400
C248        C  0.96729500  0.11867345  0.82449388     1.03300
O249        O  0.94516942  0.10963993  0.82090972    -0.77200
O250        O  0.91932717  0.11188956  0.90557017    -0.77300
C251        C  0.90621896  0.12137693  0.93766283     1.03300
O252        O  0.87167316  0.16894179  0.85777040    -0.84700
O253        O  0.90878681  0.20574084  0.86189851    -0.81700
C254        C  0.91177056  0.21077186  0.81980815     0.98800
O255        O  0.92271724  0.19512548  0.79383084    -0.81800
O256        O  0.93673578  0.14896510  0.75883054    -0.84400
C257        C  0.91612948  0.13830884  0.74722477     1.03300
O258        O  0.90110158  0.13012942  0.77738272    -0.77200
O259        O  0.87465562  0.12745548  0.85766043    -0.77300
C260        C  0.86145673  0.14739902  0.85362993     1.03300
Cr261      Cr  0.90433118  0.17220631  0.89210868     1.93700
Cr262      Cr  0.94521726  0.16785264  0.81750673     1.93200
Cr263      Cr  0.91108212  0.12217506  0.84120365     1.39100
O264        O  0.92059720  0.15398101  0.85057857    -1.22400
O265        O  0.59276626  0.09792919  0.65963614    -0.84700
O266        O  0.59313463  0.04849114  0.69452306    -0.81700
C267        C  0.60018586  0.02882988  0.71610017     0.98800
O268        O  0.62014156  0.02948548  0.74063858    -0.81700
O269        O  0.66024525  0.03846040  0.68044120    -0.84400
C270        C  0.67274339  0.05105069  0.65107224     1.03300
O271        O  0.67414840  0.07504836  0.65341348    -0.77200
O272        O  0.62886432  0.09413768  0.62355777    -0.77300
C273        C  0.60546544  0.09879630  0.62274589     1.03300
O274        O  0.60440295  0.11629553  0.74993522    -0.84700
O275        O  0.60028343  0.06820078  0.78563056    -0.81700
C276        C  0.61789434  0.06994450  0.81514451     0.98800
O277        O  0.64069705  0.06741440  0.80255749    -0.81800
O278        O  0.68335853  0.07120122  0.74656857    -0.84400
C279        C  0.68832576  0.09468262  0.74739545     1.03300
O280        O  0.67295320  0.11030149  0.72990765    -0.77200
O281        O  0.62909332  0.13114503  0.69567063    -0.77300
C282        C  0.61420626  0.13486712  0.72911771     1.03300
Cr283      Cr  0.60027680  0.08235949  0.72147619     1.93700
Cr284      Cr  0.64978849  0.05348545  0.74056767     1.93200
Cr285      Cr  0.65002665  0.10085933  0.67850575     1.39100
O286        O  0.63334100  0.07880481  0.71294016    -1.22400
O287        O  0.87680837  0.08602382  0.39109563    -0.84700
O288        O  0.87510465  0.03679950  0.35415730    -0.81700
C289        C  0.86712935  0.01767001  0.33219683     0.98800
O290        O  0.84564809  0.01856507  0.31260798    -0.81700
O291        O  0.80713473  0.03058224  0.37604827    -0.84400
C292        C  0.79436721  0.04434817  0.40317283     1.03300
O293        O  0.79391736  0.06824958  0.39843417    -0.77200
O294        O  0.84035167  0.08341449  0.42685505    -0.77300
C295        C  0.86394364  0.08644051  0.42794788     1.03300
O296        O  0.86512366  0.10546181  0.30022388    -0.84700
O297        O  0.86631619  0.05729742  0.26458839    -0.81700
C298        C  0.84786458  0.05628260  0.23660799     0.98800
O299        O  0.82532815  0.05536811  0.25099529    -0.81800
O300        O  0.78453673  0.06344749  0.30897072    -0.84400
C301        C  0.78066069  0.08716201  0.30692414     1.03300
O302        O  0.79740779  0.10230309  0.32112444    -0.77200
O303        O  0.84228880  0.12145406  0.35571601    -0.77300
C304        C  0.85668356  0.12457483  0.32134787     1.03300
Cr305      Cr  0.86820773  0.07120815  0.32865547     1.93700
Cr306      Cr  0.81710759  0.04382503  0.31424129     1.93200
Cr307      Cr  0.81973902  0.09207743  0.37267857     1.39100
O308        O  0.83513912  0.06892800  0.33873094    -1.22400
O309        O  0.57802909  0.38626964  0.92497033    -0.84700
O310        O  0.54099808  0.35023216  0.91946351    -0.81700
C311        C  0.52398141  0.33590063  0.90355737     0.98800
O312        O  0.52056548  0.33392112  0.86017179    -0.81700
O313        O  0.50524601  0.38085426  0.82367500    -0.84400
C314        C  0.50679590  0.40403773  0.81289079     1.03300
O315        O  0.52819241  0.41462265  0.80964392    -0.77200
O316        O  0.55290121  0.41505784  0.89483721    -0.77300
C317        C  0.56541793  0.40657083  0.92877012     1.03300
O318        O  0.60516131  0.36114482  0.85245866    -0.84700
O319        O  0.57048632  0.32179430  0.85606358    -0.81700
C320        C  0.56739797  0.31511811  0.81463992     0.98800
O321        O  0.55701386  0.33018554  0.78640495    -0.81800
O322        O  0.54002615  0.37557994  0.74827956    -0.84400
C323        C  0.55936927  0.38852319  0.73734294     1.03300
O324        O  0.57377395  0.39769456  0.76774976    -0.77200
O325        O  0.59932607  0.40225958  0.84914206    -0.77300
C326        C  0.61384527  0.38319420  0.84594267     1.03300
Cr327      Cr  0.57243130  0.35613591  0.88480182     1.93700
Cr328      Cr  0.53247994  0.35643454  0.80739596     1.93200
Cr329      Cr  0.56280389  0.40492149  0.83124323     1.39100
O330        O  0.55564664  0.37252947  0.84111537    -1.22400
O331        O  0.56469490  0.16709792  0.12476701    -0.84700
O332        O  0.54928659  0.21349630  0.15876462    -0.81700
C333        C  0.52541553  0.21436490  0.15503469     0.98800
O334        O  0.51156762  0.20013821  0.17966922    -0.81700
O335        O  0.49919790  0.15906279  0.23957295    -0.84400
C336        C  0.49814902  0.13829825  0.21744809     1.03300
O337        O  0.51715440  0.13115510  0.19457946    -0.77200
O338        O  0.56578531  0.12973529  0.15827236    -0.77300
C339        C  0.56679305  0.14324141  0.12206363     1.03300
O340        O  0.60158123  0.16327131  0.19706992    -0.84700
O341        O  0.58331871  0.20776274  0.23512060    -0.81700
C342        C  0.56829946  0.22392565  0.25197961     0.98800
O343        O  0.54461920  0.22005403  0.24968320    -0.81800
O344        O  0.53667465  0.17702179  0.30326395    -0.84400
C345        C  0.53824980  0.15395208  0.31536524     1.03300
O346        O  0.53770209  0.13660196  0.28526095    -0.77200
O347        O  0.58532036  0.13863182  0.24993662    -0.77300
C348        C  0.60437936  0.14793406  0.23029700     1.03300
Cr349      Cr  0.57281187  0.18652868  0.18157588     1.93700
Cr350      Cr  0.52476436  0.18765784  0.24073347     1.93200
Cr351      Cr  0.55135779  0.13677746  0.22109677     1.39100
O352        O  0.54954336  0.17025428  0.21409049    -1.22400
C353        C  0.50552545  0.27605168  0.96586641    -0.27500
C354        C  0.50065019  0.28550008  0.01036959     0.06100
C355        C  0.49831991  0.31197671  0.01627943     0.25700
C356        C  0.50362500  0.32855075  0.97976258    -0.12000
C357        C  0.51070248  0.31909009  0.93640288    -0.26000
C358        C  0.51038691  0.29267310  0.92906292     0.36500
C359        C  0.50294833  0.26834218  0.05122939     0.06100
F360        F  0.49262144  0.32185975  0.05824758    -0.19700
H361        H  0.50375454  0.34883493  0.98613378     0.15900
F362        F  0.51776335  0.28285954  0.88791971    -0.23500
H363        H  0.50775746  0.25581948  0.96039883     0.17700
C364        C  0.49096304  0.24441814  0.05324551     0.25700
C365        C  0.49671915  0.22725062  0.08917435    -0.12000
C366        C  0.51479263  0.23358936  0.12296097    -0.26000
C367        C  0.52583903  0.25789849  0.12192622     0.36600
C368        C  0.51992306  0.27498188  0.08665186    -0.27600
F369        F  0.47429824  0.23739144  0.01984524    -0.19800
H370        H  0.48820012  0.20855235  0.08908442     0.15900
F371        F  0.54328325  0.26479519  0.15417295    -0.23500
H372        H  0.52980322  0.29299120  0.08569661     0.17700
C373        C  0.71217516  0.08983094  0.26681289    -0.27500
C374        C  0.70610450  0.11534945  0.27539375     0.06100
C375        C  0.72497384  0.13175367  0.29213741     0.25700
C376        C  0.74946465  0.12268163  0.30027700    -0.12000
C377        C  0.75555515  0.09702041  0.29244805    -0.26000
C378        C  0.73664068  0.08067482  0.27512173     0.36500
C379        C  0.68010642  0.12465978  0.26632717     0.06100
F380        F  0.71949388  0.15632047  0.30232097    -0.19700
H381        H  0.76344383  0.13563058  0.31421037     0.15900
F382        F  0.74157665  0.05578486  0.26670849    -0.23500
H383        H  0.69790709  0.07697589  0.25354693     0.17700
C384        C  0.67591821  0.14559880  0.23717079     0.25700
C385        C  0.65126863  0.15332089  0.22655847    -0.12000
C386        C  0.63027738  0.14036223  0.24477034    -0.26000
C387        C  0.63452854  0.11978637  0.27509229     0.36600
C388        C  0.65925461  0.11197522  0.28543241    -0.27600
F389        F  0.69564599  0.15794242  0.21735944    -0.19800
H390        H  0.64864762  0.16927091  0.20333477     0.15900
F391        F  0.61491766  0.10676014  0.29383483    -0.23500
H392        H  0.66216343  0.09586229  0.30819266     0.17700
C393        C  0.59161301  0.24714345  0.82045804    -0.27500
C394        C  0.58704306  0.23849327  0.77547317     0.06100
C395        C  0.57617761  0.25526317  0.74299367     0.25700
C396        C  0.57023119  0.28028712  0.75550950    -0.12000
C397        C  0.57486262  0.28900095  0.80064988    -0.26000
C398        C  0.58566027  0.27201391  0.83306899     0.36500
C399        C  0.59374007  0.21195691  0.76322166     0.06100
F400        F  0.57060092  0.24724951  0.69960216    -0.19700
H401        H  0.56165893  0.29271916  0.73001154     0.15900
F402        F  0.59037405  0.27920859  0.87727211    -0.23500
H403        H  0.60002371  0.23458841  0.84596107     0.17700
C404        C  0.60903615  0.20669069  0.72484228     0.25700
C405        C  0.61580145  0.18166711  0.71448552    -0.12000
C406        C  0.60753747  0.16131557  0.74215617    -0.26000
C407        C  0.59250340  0.16666472  0.78106075     0.36600
C408        C  0.58574104  0.19174507  0.79135490    -0.27600
F409        F  0.61805845  0.22579068  0.69804544    -0.19800
H410        H  0.62750977  0.17826242  0.68451980     0.15900
F411        F  0.58438076  0.14778958  0.80933261    -0.23500
H412        H  0.57410140  0.19541011  0.82132493     0.17700
C413        C  0.69938728  0.03930268  0.53296873    -0.27500
C414        C  0.72139980  0.02541648  0.54352503     0.06100
C415        C  0.72499980  0.01647289  0.58897049     0.25700
C416        C  0.70762972  0.02277323  0.62371150    -0.12000
C417        C  0.68676895  0.03842016  0.61363393    -0.26000
C418        C  0.68235084  0.04596859  0.56773052     0.36500
C419        C  0.74220415  0.02456157  0.50920589     0.06100
F420        F  0.74605220  0.00292122  0.60019442    -0.19700
H421        H  0.71149845  0.01707536  0.65899829     0.15900
F422        F  0.66234047  0.06115991  0.55707895    -0.23500
H423        H  0.69637622  0.04667813  0.49843564     0.17700
C424        C  0.73813607  0.01594059  0.46373949     0.25700
C425        C  0.75648962  0.02012738  0.42960210    -0.12000
C426        C  0.77880903  0.03338931  0.44025860    -0.26000
C427        C  0.78326121  0.04101139  0.48600264     0.36600
C428        C  0.76529407  0.03632124  0.52019502    -0.27600
F429        F  0.71592994  0.00467644  0.45192529    -0.19800
H430        H  0.75246132  0.01470462  0.39426090     0.15900
F431        F  0.80427860  0.05456398  0.49693662    -0.23500
H432        H  0.76862938  0.04360503  0.55465168     0.17700
C433        C  0.58359851  0.13328699  0.99543006    -0.27500
C434        C  0.58581185  0.10675964  0.99317742     0.06100
C435        C  0.58014278  0.09219135  0.03238605     0.25700
C436        C  0.57336697  0.10413861  0.07376796    -0.12000
C437        C  0.57178876  0.13084394  0.07670047    -0.26000
C438        C  0.57644720  0.14528096  0.03651797     0.36500
C439        C  0.59472285  0.09464230  0.95006044     0.06100
F440        F  0.58196648  0.06647147  0.03104118    -0.19700
H441        H  0.56977667  0.09242533  0.10379702     0.15900
F442        F  0.57472555  0.17101357  0.03696971    -0.23500
H443        H  0.58764194  0.14475544  0.96526065     0.17700
C444        C  0.57795698  0.08106799  0.92165500     0.25700
C445        C  0.58605497  0.07190731  0.87881187    -0.12000
C446        C  0.61109227  0.07586727  0.86369416    -0.26000
C447        C  0.62817521  0.08838370  0.89335784     0.36600
C448        C  0.61992553  0.09786024  0.93594524    -0.27600
F449        F  0.55345182  0.07776642  0.93432984    -0.19800
H450        H  0.57246076  0.06236472  0.85677776     0.15900
F451        F  0.65239761  0.09283954  0.88015244    -0.23500
H452        H  0.63307780  0.10825895  0.95757456     0.17700
C453        C  0.54997947  0.11380206  0.42209855    -0.27500
C454        C  0.55656852  0.13232896  0.45448570     0.06100
C455        C  0.55411514  0.15812691  0.44294838     0.25700
C456        C  0.54665175  0.16523734  0.39825776    -0.12000
C457        C  0.54159975  0.14666083  0.36457575    -0.26000
C458        C  0.54240447  0.12076834  0.37763232     0.36500
C459        C  0.56877158  0.12440443  0.49799038     0.06100
F460        F  0.56011057  0.17635192  0.47421915    -0.19700
H461        H  0.54601361  0.18523706  0.38945524     0.15900
F462        F  0.53698751  0.10200134  0.34703824    -0.23500
H463        H  0.55172326  0.09383136  0.43075539     0.17700
C464        C  0.55449945  0.11940766  0.53761778     0.25700
C465        C  0.56649662  0.11068406  0.57783429    -0.12000
C466        C  0.59291593  0.10675437  0.57906026    -0.26000
C467        C  0.60711076  0.11196961  0.53899858     0.36600
C468        C  0.59503684  0.12061677  0.49891328    -0.27600
F469        F  0.52901727  0.12288782  0.53731620    -0.19800
H470        H  0.55507155  0.10708609  0.60808439     0.15900
F471        F  0.63267586  0.10917349  0.53852147    -0.23500
H472        H  0.60619996  0.12435211  0.46836162     0.17700
C473        C  0.88428376  0.05512620  0.12525415    -0.27500
C474        C  0.86791143  0.06892483  0.09651121     0.06100
C475        C  0.84317670  0.07441159  0.11144049     0.25700
C476        C  0.83586392  0.06828216  0.15634875    -0.12000
C477        C  0.85324590  0.05692480  0.18682964    -0.26000
C478        C  0.87710778  0.04921301  0.17024618     0.36500
C479        C  0.87834062  0.08162639  0.05555189     0.06100
F480        F  0.82681653  0.08736763  0.08374267    -0.19700
H481        H  0.81734193  0.07417155  0.16828108     0.15900
F482        F  0.89405493  0.03726403  0.19827120    -0.23500
H483        H  0.90336071  0.05072429  0.11411895     0.17700
C484        C  0.87898550  0.10823460  0.05445637     0.25700
C485        C  0.88971036  0.12074916  0.01719706    -0.12000
C486        C  0.89978224  0.10709195  0.97982894    -0.26000
C487        C  0.89993717  0.08035553  0.98151472     0.36600
C488        C  0.88942065  0.06771910  0.01952319    -0.27600
F489        F  0.86945111  0.12218328  0.08980086    -0.19800
H490        H  0.88950984  0.14133374  0.01711845     0.15900
F491        F  0.90912385  0.06649768  0.94582109    -0.23500
H492        H  0.88944443  0.04714878  0.02048979     0.17700
C493        C  0.90194212  0.11975069  0.52052004    -0.27500
C494        C  0.89145097  0.10912269  0.56068571     0.06100
C495        C  0.87387024  0.08917680  0.55634778     0.25700
C496        C  0.86606177  0.08101848  0.51281886    -0.12000
C497        C  0.87581949  0.09224496  0.47275433    -0.26000
C498        C  0.89431319  0.11129451  0.47679992     0.36500
C499        C  0.89805975  0.11925185  0.60697074     0.06100
F500        F  0.86403955  0.07766130  0.59421854    -0.19700
H501        H  0.85196739  0.06617278  0.51037709     0.15900
F502        F  0.90367029  0.12293288  0.43867215    -0.23500
H503        H  0.91529451  0.13528101  0.52293628     0.17700
C504        C  0.92341919  0.12317391  0.62036151     0.25700
C505        C  0.92922160  0.13064649  0.66556421    -0.12000
C506        C  0.90987756  0.13402358  0.69812685    -0.26000
C507        C  0.88447354  0.13135037  0.68401864     0.36600
C508        C  0.87870495  0.12426246  0.63882612    -0.27600
F509        F  0.94264622  0.11846190  0.59061669    -0.19800
H510        H  0.94889095  0.13258837  0.67568077     0.15900
F511        F  0.86516265  0.13531546  0.71401892    -0.23500
H512        H  0.85901252  0.12222829  0.62890724     0.17700
C513        C  0.79678271  0.15190888  0.79737294    -0.27500
C514        C  0.78428358  0.13146956  0.81881954     0.06100
C515        C  0.79637150  0.11871417  0.85548165     0.25700
C516        C  0.82106215  0.12509879  0.86819151    -0.12000
C517        C  0.83406390  0.14456850  0.84520635    -0.26000
C518        C  0.82150070  0.15855155  0.81062738     0.36500
C519        C  0.75952008  0.12225979  0.80107510     0.06100
F520        F  0.78447429  0.09967208  0.87838702    -0.19700
H521        H  0.83037152  0.11428928  0.89527764     0.15900
F522        F  0.83373403  0.17725948  0.78741191    -0.23500
H523        H  0.78786382  0.16193191  0.76892723     0.17700
C524        C  0.73893329  0.13886849  0.79468233     0.25700
C525        C  0.71579388  0.12971191  0.77779270    -0.12000
C526        C  0.71270286  0.10383826  0.76695546    -0.26000
C527        C  0.73343049  0.08723973  0.77324064     0.36600
C528        C  0.75652487  0.09644066  0.79004048    -0.27600
F529        F  0.74103479  0.16384360  0.80559866    -0.19800
H530        H  0.70021347  0.14292153  0.77331392     0.15900
F531        F  0.73173074  0.06226925  0.76192435    -0.23500
H532        H  0.77229425  0.08338399  0.79384538     0.17700
C533        C  0.87116877  0.24732944  0.26806943    -0.27500
C534        C  0.88856690  0.22711142  0.27146988     0.06100
C535        C  0.91437363  0.23216877  0.26362568     0.25700
C536        C  0.92247513  0.25682160  0.25292988    -0.12000
C537        C  0.90510371  0.27706686  0.24925848    -0.26000
C538        C  0.87923535  0.27198931  0.25692633     0.36500
C539        C  0.87979024  0.20092265  0.28340577     0.06100
F540        F  0.93190612  0.21335080  0.26708443    -0.19700
H541        H  0.94245403  0.25996381  0.24682756     0.15900
F542        F  0.86167655  0.29079904  0.25380171    -0.23500
H543        H  0.85116854  0.24394738  0.27346011     0.17700
C544        C  0.86400412  0.19662654  0.32165640     0.25700
C545        C  0.85638000  0.17192365  0.33325754    -0.12000
C546        C  0.86426861  0.15080651  0.30713519    -0.26000
C547        C  0.87983035  0.15518351  0.26841901     0.36600
C548        C  0.88742732  0.17992609  0.25685016    -0.27600
F549        F  0.85660096  0.21623861  0.34885739    -0.19800
H550        H  0.84452389  0.16933430  0.36329505     0.15900
F551        F  0.88784595  0.13563005  0.24165274    -0.23500
H552        H  0.89927343  0.18270028  0.22684568     0.17700
C553        C  0.99407002  0.26730084  0.08201831    -0.27500
C554        C  0.98166863  0.26748159  0.03883014     0.06100
C555        C  0.96496683  0.28758531  0.02848498     0.25700
C556        C  0.95951369  0.30599668  0.06161633    -0.12000
C557        C  0.97059701  0.30497303  0.10571976    -0.26000
C558        C  0.98879560  0.28609836  0.11516005     0.36500
C559        C  0.98242059  0.24500846  0.00767339     0.06100
F560        F  0.95184944  0.28801133  0.98805072    -0.19700
H561        H  0.94520414  0.32018527  0.05384828     0.15900
F562        F  0.99957839  0.28440354  0.15768525    -0.23500
H563        H  0.00681613  0.25188348  0.09087743     0.17700
C564        C  0.98649915  0.24784168  0.95993811     0.25700
C565        C  0.97963807  0.22841386  0.92924424    -0.12000
C566        C  0.96846440  0.20590267  0.94559995    -0.26000
C567        C  0.96719263  0.20200474  0.99374326     0.36600
C568        C  0.97416212  0.22138639  0.02434624    -0.27600
F569        F  0.99534673  0.27012143  0.94277378    -0.19800
H570        H  0.98110784  0.23190974  0.89248877     0.15900
F571        F  0.95750145  0.18016480  0.01126709    -0.23500
H572        H  0.97102750  0.21866672  0.06096628     0.30500
C573        C  0.88363908  0.40637054  0.49251290    -0.27500
C574        C  0.90909661  0.39877526  0.49375662     0.06100
C575        C  0.92285746  0.40106154  0.53508856     0.25700
C576        C  0.91096729  0.41024500  0.57490996    -0.12000
C577        C  0.88522156  0.41752895  0.57406437    -0.26000
C578        C  0.87178445  0.41578696  0.53202493     0.36500
C579        C  0.92096933  0.38921357  0.45103938     0.06100
F580        F  0.94754241  0.39384014  0.53718628    -0.19700
H581        H  0.92185612  0.41122595  0.60664889     0.15900
F582        F  0.84708760  0.42282289  0.52900074    -0.23500
H583        H  0.87290902  0.40503595  0.46061915     0.17700
C584        C  0.91318329  0.36604143  0.43159500     0.25700
C585        C  0.92108952  0.35919824  0.38721018    -0.12000
C586        C  0.93641354  0.37563969  0.36128603    -0.26000
C587        C  0.94534214  0.39815864  0.38194241     0.36600
C588        C  0.93779224  0.40474000  0.42662017    -0.27600
F589        F  0.89706158  0.35060463  0.45480887    -0.19800
H590        H  0.91393609  0.34182075  0.37201830     0.15900
F591        F  0.96070004  0.41421104  0.35836538    -0.23500
H592        H  0.94396279  0.42264905  0.44119822     0.17700
C593        C  0.85616443  0.43247033  0.93525440    -0.27500
C594        C  0.88118669  0.43719701  0.94932490     0.06100
C595        C  0.89772638  0.44974872  0.91932514     0.25700
C596        C  0.88967619  0.45630333  0.87487799    -0.12000
C597        C  0.86498568  0.45050259  0.85968056    -0.26000
C598        C  0.84796437  0.43924298  0.89087135     0.36500
C599        C  0.89088625  0.42574496  0.99234636     0.06100
F600        F  0.92211965  0.45413982  0.93197198    -0.19700
H601        H  0.90313758  0.46504625  0.85164891     0.15900
F602        F  0.82405721  0.43311303  0.87755490    -0.23500
H603        H  0.84331675  0.42252904  0.95805592     0.17700
C604        C  0.89519351  0.44028228  0.03216559     0.25700
C605        C  0.90344391  0.42844826  0.07299416    -0.12000
C606        C  0.90784237  0.40202768  0.07430913    -0.26000
C607        C  0.90449392  0.38785620  0.03338541     0.36600
C608        C  0.89592005  0.39965268  0.99311068    -0.27600
F609        F  0.89082722  0.46570770  0.03178495    -0.19800
H610        H  0.90595033  0.43987593  0.10372521     0.15900
F611        F  0.90878381  0.36242350  0.03228126    -0.23500
H612        H  0.89299884  0.38833311  0.96233107     0.17700
C613        C  0.87791958  0.27385626  0.81102226    -0.27500
C614        C  0.88949387  0.28462828  0.77221346     0.06100
C615        C  0.90754897  0.27044386  0.74759526     0.25700
C616        C  0.91414848  0.24600663  0.76227795    -0.12000
C617        C  0.90315448  0.23557117  0.80203691    -0.26000
C618        C  0.88465603  0.24960455  0.82597040     0.36500
C619        C  0.88323293  0.31101024  0.75909053     0.06100
F620        F  0.91967986  0.28062914  0.71074824    -0.19700
H621        H  0.92852991  0.23562362  0.74351971     0.15900
F622        F  0.87305665  0.23996650  0.86389585    -0.23500
H623        H  0.86374650  0.28438568  0.83006231     0.17700
C624        C  0.87606518  0.31716738  0.71368159     0.25700
C625        C  0.86980363  0.34215302  0.70226965    -0.12000
C626        C  0.87060204  0.36139099  0.73584347    -0.26000
C627        C  0.87770136  0.35521287  0.78134008     0.36600
C628        C  0.88389739  0.33019052  0.79275732    -0.27600
F629        F  0.87443743  0.29895789  0.68065955    -0.19800
H630        H  0.86438567  0.34646727  0.66699927     0.15900
F631        F  0.87808672  0.37315139  0.81498380    -0.23500
H632        H  0.88931741  0.32576125  0.82798380     0.17700
C633        C  0.73170734  0.38599412  0.76939530    -0.27500
C634        C  0.71872830  0.40251900  0.79922529     0.06100
C635        C  0.73095546  0.42475804  0.81434444     0.25700
C636        C  0.75461545  0.43134571  0.79681209    -0.12000
C637        C  0.76695490  0.41565800  0.76477468    -0.26000
C638        C  0.75571244  0.39235823  0.75250703     0.36500
C639        C  0.69201895  0.39732551  0.81215451     0.06100
F640        F  0.71991860  0.44034084  0.84572882    -0.19700
H641        H  0.76313479  0.44904618  0.80781641     0.15900
F642        F  0.76717097  0.37639418  0.72230027    -0.23500
H643        H  0.72280397  0.36865325  0.75757128     0.17700
C644        C  0.67360232  0.41659647  0.80853680     0.25700
C645        C  0.64852425  0.41174820  0.82030107    -0.12000
C646        C  0.64090332  0.38746784  0.83493389    -0.26000
C647        C  0.65915135  0.36795087  0.83758943     0.36600
C648        C  0.68449002  0.37293662  0.82645154    -0.27600
F649        F  0.67956265  0.43995254  0.79187457    -0.19800
H650        H  0.63490215  0.42706715  0.81692530     0.15900
F651        F  0.65262918  0.34414153  0.85103221    -0.23500
H652        H  0.69828359  0.35773893  0.82915477     0.17700
C653        C  0.80347174  0.38426396  0.21861152    -0.27500
C654        C  0.79926889  0.40396169  0.25020366     0.06100
C655        C  0.81998387  0.41442724  0.27414275     0.25700
C656        C  0.84454670  0.40572250  0.26555708    -0.12000
C657        C  0.84893075  0.38646020  0.23290716    -0.26000
C658        C  0.82801001  0.37559648  0.20982311     0.36500
C659        C  0.77320314  0.41323840  0.25835881     0.06100
F660        F  0.81644048  0.43284481  0.30626425    -0.19700
H661        H  0.86017047  0.41436154  0.28404433     0.15900
F662        F  0.83114299  0.35671870  0.17847094    -0.23500
H663        H  0.78771416  0.37586651  0.20011064     0.17700
C664        C  0.76725427  0.43917114  0.25420536     0.25700
C665        C  0.74285379  0.44781395  0.26417571    -0.12000
C666        C  0.72391512  0.43080067  0.27855299    -0.26000
C667        C  0.72969032  0.40465326  0.28079542     0.36600
C668        C  0.75410278  0.39604826  0.27064616    -0.27600
F669        F  0.78504535  0.45615277  0.24052101    -0.19800
H670        H  0.73901940  0.46800119  0.26182981     0.15900
F671        F  0.71205436  0.38741064  0.29402196    -0.23500
H672        H  0.75831559  0.37595501  0.27366030     0.17700
C673        C  0.77422880  0.50972294  0.55007246    -0.27500
C674        C  0.75009907  0.49867611  0.54474823     0.06100
C675        C  0.74247191  0.47990299  0.57643758     0.25700
C676        C  0.75907120  0.47156312  0.61092655    -0.12000
C677        C  0.78352563  0.48176689  0.61497110    -0.26000
C678        C  0.79078582  0.50150485  0.58518531     0.36500
C679        C  0.73463003  0.50355833  0.50252251     0.06100
F680        F  0.71978082  0.46804582  0.57185958    -0.19700
H681        H  0.75312256  0.45631252  0.63359565     0.15900
F682        F  0.81445185  0.51143830  0.58778275    -0.23500
H683        H  0.78060774  0.52400907  0.52583120     0.17700
C684        C  0.70829793  0.50788065  0.50491730     0.25700
C685        C  0.69319282  0.50594163  0.46510435    -0.12000
C686        C  0.70410651  0.49973653  0.42250671    -0.26000
C687        C  0.73058790  0.49768659  0.41942996     0.36600
C688        C  0.74569593  0.49982597  0.45902858    -0.27600
F689        F  0.69698316  0.51221843  0.54616231    -0.19800
H690        H  0.67277531  0.50698245  0.46833498     0.15900
F691        F  0.74160223  0.49109112  0.37889070    -0.23500
H692        H  0.76585559  0.49629216  0.45622698     0.17700
C693        C  0.59407321  0.34426287  0.27384437    -0.27500
C694        C  0.60387820  0.32468222  0.30179053     0.06100
C695        C  0.62165185  0.33092084  0.33626474     0.25700
C696        C  0.62875252  0.35631734  0.34333434    -0.12000
C697        C  0.61847961  0.37605902  0.31601431    -0.26000
C698        C  0.60127142  0.36959361  0.28060529     0.36500
C699        C  0.59511171  0.29803319  0.29459313     0.06100
F700        F  0.63153540  0.31260940  0.36410470    -0.19700
H701        H  0.64212345  0.36053589  0.37074029     0.15900
F702        F  0.59122131  0.38768035  0.25249533    -0.23500
H703        H  0.58073130  0.33988115  0.24646590     0.17700
C704        C  0.56907755  0.29248048  0.29298244     0.25700
C705        C  0.56067008  0.26809873  0.28131482    -0.12000
C706        C  0.57794861  0.24855462  0.27075573    -0.26000
C707        C  0.60410297  0.25378018  0.27479695     0.36600
C708        C  0.61250835  0.27826546  0.28665872    -0.27600
F709        F  0.55168497  0.31080366  0.30218223    -0.19800
H710        H  0.54045870  0.26480147  0.27905679     0.15900
F711        F  0.62161684  0.23551412  0.26607232    -0.23500
H712        H  0.63266538  0.28203091  0.28789017     0.17700
C713        C  0.57986568  0.41905342  0.05334438    -0.27500
C714        C  0.58605257  0.44488988  0.05230474     0.06100
C715        C  0.58109153  0.45917807  0.01224293     0.25700
C716        C  0.57195315  0.44707573  0.97235705    -0.12000
C717        C  0.56774160  0.42071063  0.97244427    -0.26000
C718        C  0.57067516  0.40703677  0.01390795     0.36500
C719        C  0.59887337  0.45590785  0.09284497     0.06100
F720        F  0.58654565  0.48435391  0.01092456    -0.19700
H721        H  0.56992843  0.45789834  0.94070934     0.15900
F722        F  0.56587879  0.38170535  0.01559225    -0.23500
H723        H  0.58309414  0.40796533  0.08439182     0.17700
C724        C  0.58513664  0.47007242  0.12505616     0.25700
C725        C  0.59578638  0.47543184  0.16816412    -0.12000
C726        C  0.62032025  0.46683119  0.17968347    -0.26000
C727        C  0.63481922  0.45447391  0.14590249     0.36600
C728        C  0.62398802  0.44882588  0.10290920    -0.27600
F729        F  0.56082313  0.47703658  0.11613575    -0.19800
H730        H  0.58435812  0.48529395  0.19344100     0.15900
F731        F  0.65855904  0.44601949  0.15563552    -0.23500
H732        H  0.63471770  0.43776142  0.07827274     0.17700
C733        C  0.55822763  0.42076588  0.62093556    -0.27500
C734        C  0.58085714  0.41171190  0.60140371     0.06100
C735        C  0.59489518  0.39303425  0.62533547     0.25700
C736        C  0.58712545  0.38467918  0.66887430    -0.12000
C737        C  0.56494370  0.39426115  0.68876217    -0.26000
C738        C  0.55026740  0.41207065  0.66425866     0.36500
C739        C  0.59039614  0.42247518  0.55727481     0.06100
F740        F  0.61625310  0.38300016  0.60677047    -0.19700
H741        H  0.59870297  0.37106789  0.68756564     0.15900
F742        F  0.52912654  0.42219548  0.68347589    -0.23500
H743        H  0.54723342  0.43530621  0.60347518     0.17700
C744        C  0.57471157  0.42440502  0.51803979     0.25700
C745        C  0.58453530  0.43313902  0.47611289    -0.12000
C746        C  0.61016642  0.44014647  0.47233880    -0.26000
C747        C  0.62550944  0.43940615  0.51233285     0.36600
C748        C  0.61565186  0.43065920  0.55416202    -0.27600
F749        F  0.55021629  0.41667896  0.51955314    -0.19800
H750        H  0.57221174  0.43349917  0.44611502     0.15900
F751        F  0.65022938  0.44645091  0.51101822    -0.23500
H752        H  0.62792037  0.43000666  0.58423212     0.17700
C753        C  0.00622284  0.06214342  0.78412598    -0.27500
C754        C  0.02867820  0.07386695  0.76938893     0.06100
C755        C  0.03158740  0.10013830  0.77645075     0.25700
C756        C  0.01215000  0.11437774  0.79691370    -0.12000
C757        C  0.98931136  0.10279161  0.81033729    -0.26000
C758        C  0.98675029  0.07632886  0.80428169     0.36500
C759        C  0.04845740  0.05846113  0.74577489     0.06100
F760        F  0.05263001  0.11229096  0.76131915    -0.19700
H761        H  0.01454107  0.13472171  0.80025651     0.15900
F762        F  0.96522433  0.06413184  0.81694506    -0.23500
H763        H  0.00364006  0.04188725  0.77953784     0.17700
C764        C  0.07382133  0.05833617  0.76115918     0.25700
C765        C  0.09141785  0.04139713  0.74192789    -0.12000
C766        C  0.08390737  0.02405843  0.70771456    -0.26000
C767        C  0.05894763  0.02517375  0.69062285     0.36600
C768        C  0.04149156  0.04227184  0.70934365    -0.27600
F769        F  0.08106420  0.07295689  0.79742749    -0.19800
H770        H  0.11028497  0.04028717  0.75666275     0.15900
F771        F  0.05105027  0.00858959  0.65771076    -0.23500
H772        H  0.02216907  0.04217231  0.69659789     0.17700
C773        C  0.43792789  0.10913870  0.26678513    -0.27500
C774        C  0.43988488  0.08377080  0.25215837     0.06100
C775        C  0.45937282  0.07736651  0.22113890     0.25700
C776        C  0.47724960  0.09560737  0.20746114    -0.12000
C777        C  0.47618222  0.12071394  0.22421789    -0.26000
C778        C  0.45577871  0.12738493  0.25321096     0.36500
C779        C  0.42174665  0.06422867  0.26987127     0.06100
F780        F  0.46123830  0.05341432  0.20414706    -0.19700
H781        H  0.49254779  0.08974302  0.18504198     0.15900
F782        F  0.45354810  0.15130185  0.27018699    -0.23500
H783        H  0.42299270  0.11468042  0.29026784     0.17700
C784        C  0.43040159  0.04120908  0.28932175     0.25700
C785        C  0.41314304  0.02285499  0.30492267    -0.12000
C786        C  0.38681838  0.02682449  0.30124802    -0.26000
C787        C  0.37820854  0.05024876  0.28324218     0.36600
C788        C  0.39548816  0.06871182  0.26813975    -0.27600
F789        F  0.45559133  0.03641768  0.29337586    -0.19800
H790        H  0.42045942  0.00502608  0.31816207     0.15900
F791        F  0.35304453  0.05516426  0.27922377    -0.23500
H792        H  0.38828722  0.08632821  0.25378861     0.17700
C793        C  0.20273720  0.99350940  0.51055363    -0.27500
C794        C  0.22769023  0.99735787  0.52606305     0.06100
C795        C  0.23248271  0.99829666  0.57387887     0.25700
C796        C  0.21292451  0.99379588  0.60531295    -0.12000
C797        C  0.18837866  0.98797871  0.58961521    -0.26000
C798        C  0.18326602  0.98869556  0.54192691     0.36500
C799        C  0.24868618  0.99701722  0.49212889     0.06100
F800        F  0.25628343  0.00241415  0.59014505    -0.19700
H801        H  0.21739487  0.99311180  0.64183525     0.15900
F802        F  0.15969512  0.98355203  0.52553746    -0.23500
H803        H  0.19860039  0.99261962  0.47392998     0.17700
C804        C  0.26832270  0.97906444  0.49672503     0.25700
C805        C  0.28531046  0.97524045  0.46072533    -0.12000
C806        C  0.28306985  0.98899603  0.41936531    -0.26000
C807        C  0.26455814  0.00805853  0.41557293     0.36600
C808        C  0.24740933  0.01195800  0.45178090    -0.27600
F809        F  0.26964093  0.96341480  0.53398386    -0.19800
H810        H  0.29925847  0.96018251  0.46390933     0.15900
F811        F  0.26154543  0.02113294  0.37549566    -0.23500
H812        H  0.23231176  0.02573647  0.44741556     0.17700
C813        C  0.94312879  0.59876988  0.75468743    -0.27500
C814        C  0.94587981  0.57268558  0.76355548     0.06100
C815        C  0.96684163  0.56433528  0.78976441     0.25700
C816        C  0.98522538  0.58160655  0.80477438    -0.12000
C817        C  0.98319393  0.60759515  0.79398394    -0.26000
C818        C  0.96150309  0.61609022  0.76970587     0.36500
C819        C  0.92736116  0.55411621  0.74458951     0.06100
F820        F  0.96970366  0.53936949  0.80052003    -0.19700
H821        H  0.00159247  0.57440659  0.82331917     0.15900
F822        F  0.95836960  0.64101861  0.75898351    -0.23500
H823        H  0.92716577  0.60567363  0.73465436     0.17700
C824        C  0.90113685  0.55719343  0.75108963     0.25700
C825        C  0.88430433  0.53806903  0.73735550    -0.12000
C826        C  0.89323639  0.51562287  0.71658952    -0.26000
C827        C  0.91932941  0.51342567  0.70724993     0.36600
C828        C  0.93609627  0.53249380  0.72111963    -0.27600
F829        F  0.89189610  0.57790686  0.77328129    -0.19800
H830        H  0.86436173  0.54033637  0.74495850     0.15900
F831        F  0.92900667  0.49214546  0.68755229    -0.23500
H832        H  0.95614011  0.53000498  0.71468344     0.17700
C833        C  0.11010357  0.77434996  0.77545270    -0.27500
C834        C  0.09433780  0.78900932  0.74664884     0.06100
C835        C  0.07180411  0.77823077  0.72953455     0.25700
C836        C  0.06465819  0.75380118  0.74286141    -0.12000
C837        C  0.07999660  0.73938101  0.77277769    -0.26000
C838        C  0.10311219  0.74971413  0.78835002     0.36500
C839        C  0.10126253  0.81555365  0.73499912     0.06100
F840        F  0.05676077  0.79120512  0.69950217    -0.19700
H841        H  0.04699009  0.74617438  0.72979010     0.15900
F842        F  0.11849451  0.73649908  0.81745379    -0.23500
H843        H  0.12756005  0.78223680  0.78894369     0.17700
C844        C  0.08339816  0.83525259  0.73918922     0.25700
C845        C  0.08958243  0.85992905  0.72592912    -0.12000
C846        C  0.11382381  0.86572371  0.70902468    -0.26000
C847        C  0.13210317  0.84625855  0.70671683     0.36600
C848        C  0.12577688  0.82138182  0.71948140    -0.27600
F849        F  0.06003876  0.83077726  0.75684645    -0.19800
H850        H  0.07529268  0.87461024  0.72916450     0.15900
F851        F  0.15579363  0.85102544  0.69095154    -0.23500
H852        H  0.13988897  0.80653027  0.71630627     0.17700
C853        C  0.93384785  0.91650952  0.25937540    -0.27500
C854        C  0.93514191  0.94312018  0.25527820     0.06100
C855        C  0.95393938  0.95375029  0.22700564     0.25700
C856        C  0.97203375  0.93819321  0.20597316    -0.12000
C857        C  0.97185401  0.91167375  0.21250135    -0.26000
C858        C  0.95204073  0.90087316  0.23826207     0.36500
C859        C  0.91739054  0.95985916  0.28116208     0.06100
F860        F  0.95515565  0.97928297  0.22054042    -0.19700
H861        H  0.98705369  0.94704614  0.18635273     0.15900
F862        F  0.95151182  0.87549073  0.24646111    -0.23500
H863        H  0.91946632  0.90790581  0.28082422     0.17700
C864        C  0.89106784  0.95743263  0.27581224     0.25700
C865        C  0.87467461  0.97510499  0.29611691    -0.12000
C866        C  0.88409439  0.99562463  0.32230020    -0.26000
C867        C  0.91042007  0.99685243  0.33055634     0.36600
C868        C  0.92681572  0.97922777  0.30989963    -0.27600
F869        F  0.88126166  0.93903888  0.24827052    -0.19800
H870        H  0.85458186  0.97350483  0.28901470     0.15900
F871        F  0.92055269  0.01591798  0.35614196    -0.23500
H872        H  0.94704453  0.98114031  0.31526365     0.17700
C873        C  0.17708414  0.88003512  0.19634086    -0.27500
C874        C  0.18225147  0.90337491  0.21812254     0.06100
C875        C  0.16177483  0.91885234  0.23137623     0.25700
C876        C  0.13686258  0.91133576  0.22234659    -0.12000
C877        C  0.13164724  0.88808845  0.20046224    -0.26000
C878        C  0.15204031  0.87235249  0.18777228     0.36500
C879        C  0.20880406  0.91132342  0.22829552     0.06100
F880        F  0.16578609  0.94100816  0.25419515    -0.19700
H881        H  0.12153272  0.92371258  0.23289521     0.15900
F882        F  0.14785166  0.84999726  0.16574428    -0.23500
H883        H  0.19248513  0.86786041  0.18544925     0.17700
C884        C  0.22577298  0.89476567  0.25085741     0.25700
C885        C  0.24975131  0.90327799  0.26467992    -0.12000
C886        C  0.25736492  0.92851280  0.25665934    -0.26000
C887        C  0.24089231  0.94469391  0.23183439     0.36600
C888        C  0.21692737  0.93611674  0.21783936    -0.27600
F889        F  0.21866861  0.87076982  0.26203070    -0.19800
H890        H  0.26196366  0.89031872  0.28353385     0.15900
F891        F  0.24773394  0.96889234  0.22152926    -0.23500
H892        H  0.20446861  0.94905137  0.19945809     0.17700
C893        C  0.99455114  0.76669049  0.06378279    -0.27500
C894        C  0.00207947  0.76994937  0.01752031     0.06100
C895        C  0.01261046  0.79343821  0.00449603     0.25700
C896        C  0.01670473  0.81248030  0.03722579    -0.12000
C897        C  0.01089025  0.80866550  0.08409792    -0.26000
C898        C  0.99893195  0.78578052  0.09684762     0.36500
C899        C  0.00183357  0.74830462  0.98404141     0.06100
F900        F  0.02101769  0.79734722  0.96083423    -0.19700
H901        H  0.02591862  0.82979326  0.02611280     0.15900
F902        F  0.99307301  0.78105532  0.14162072    -0.23500
H903        H  0.98617162  0.74893489  0.07473819     0.17700
C904        C  0.01285724  0.72476408  0.99602031     0.25700
C905        C  0.01816471  0.70672672  0.96188078    -0.12000
C906        C  0.01231316  0.71153113  0.91535724    -0.26000
C907        C  0.99945022  0.73403255  0.90373274     0.36600
C908        C  0.99410693  0.75214913  0.93787571    -0.27600
F909        F  0.02082655  0.72011046  0.03985027    -0.19800
H910        H  0.02851298  0.68967834  0.97133150     0.15900
F911        F  0.99445580  0.73967116  0.85884592    -0.23500
H912        H  0.98532684  0.76991785  0.92770344     0.17700
C913        C  0.05853593  0.94054724  0.49133120    -0.27500
C914        C  0.05933224  0.91550812  0.47447103     0.06100
C915        C  0.07211492  0.89670343  0.49999092     0.25700
C916        C  0.08469001  0.90308416  0.54062656    -0.12000
C917        C  0.08469055  0.92822756  0.55664179    -0.26000
C918        C  0.07104112  0.94690329  0.53235200     0.36500
C919        C  0.05101613  0.90996823  0.42691016     0.06100
F920        F  0.07407568  0.87255079  0.48397306    -0.19700
H921        H  0.09490614  0.88837689  0.55920224     0.15900
F922        F  0.07106213  0.97144775  0.54670612    -0.23500
H923        H  0.04906635  0.95533690  0.47170610     0.17700
C924        C  0.03611665  0.88858880  0.41634185     0.25700
C925        C  0.03288554  0.88104946  0.37038239    -0.12000
C926        C  0.04454314  0.89471643  0.33466171    -0.26000
C927        C  0.05792128  0.91713516  0.34538529     0.36600
C928        C  0.06108827  0.92456054  0.39102641    -0.27600
F929        F  0.02533187  0.87466992  0.45047272    -0.19800
H930        H  0.02203633  0.86409329  0.36289615     0.15900
F931        F  0.06843504  0.93176316  0.31191226    -0.23500
H932        H  0.07259909  0.94109682  0.39844421     0.17700
C933        C  0.10450678  0.96161202  0.91647430    -0.27500
C934        C  0.08247263  0.94743547  0.92513441     0.06100
C935        C  0.06833106  0.93797432  0.88780596     0.25700
C936        C  0.07721511  0.94093944  0.84299016    -0.12000
C937        C  0.10027541  0.95338689  0.83450625    -0.26000
C938        C  0.11346802  0.96452177  0.87148420     0.36500
C939        C  0.07685025  0.93869288  0.97239990     0.06100
F940        F  0.04699084  0.92414512  0.89472478    -0.19700
H941        H  0.06634267  0.93275298  0.81491497     0.15900
F942        F  0.13570963  0.97682437  0.86460306    -0.23500
H943        H  0.11550595  0.96926076  0.94487979     0.17700
C944        C  0.09593330  0.92628825  0.99781417     0.25700
C945        C  0.09016230  0.91431374  0.03910542    -0.12000
C946        C  0.06532455  0.91433679  0.05600964    -0.26000
C947        C  0.04629490  0.92757579  0.03187027     0.36600
C948        C  0.05208078  0.93966541  0.99011813    -0.27600
F949        F  0.11988114  0.92421965  0.98129744    -0.19800
H950        H  0.10517120  0.90443947  0.05749603     0.15900
F951        F  0.02202901  0.92761104  0.04718108    -0.23500
H952        H  0.03712022  0.94910115  0.97090483     0.17700
C953        C  0.02016582  0.45272923  0.22138327    -0.27500
C954        C  0.04093613  0.44507107  0.24848919     0.06100
C955        C  0.04341043  0.41927684  0.26035276     0.25700
C956        C  0.02459776  0.40177353  0.24764204    -0.12000
C957        C  0.00309038  0.40958853  0.22230221    -0.26000
C958        C  0.00157167  0.43522911  0.20795876     0.36500
C959        C  0.05902221  0.46442064  0.26622095     0.06100
F960        F  0.06328732  0.41125733  0.28648801    -0.19700
H961        H  0.02640946  0.38232132  0.25919221     0.15900
F962        F  0.98152832  0.44384681  0.18286105    -0.23500
H963        H  0.01809135  0.47241566  0.21143382     0.17700
C964        C  0.08485055  0.46355068  0.25489912     0.25700
C965        C  0.10123696  0.48283119  0.26982311    -0.12000
C966        C  0.09232816  0.50338870  0.29644668    -0.26000
C967        C  0.06656405  0.50361215  0.30917432     0.36600
C968        C  0.05019461  0.48441609  0.29389734    -0.27600
F969        F  0.09395189  0.44476485  0.22748730    -0.19800
H970        H  0.12089204  0.48211097  0.25893339     0.15900
F971        F  0.05685974  0.52288923  0.33468823    -0.23500
H972        H  0.03029236  0.48533009  0.30327123     0.17700
C973        C  0.04796647  0.61476207  0.59502277    -0.27500
C974        C  0.06765984  0.62792545  0.57336979     0.06100
C975        C  0.07806236  0.64954135  0.59468619     0.25700
C976        C  0.06959834  0.65711151  0.63819777    -0.12000
C977        C  0.05109164  0.64289407  0.66119322    -0.26000
C978        C  0.03990450  0.62197435  0.63890724     0.36500
C979        C  0.07847994  0.61790950  0.53028450     0.06100
F980        F  0.09697444  0.66275433  0.57407412    -0.19700
H981        H  0.07860812  0.67308214  0.65513087     0.15900
F982        F  0.02180911  0.60800214  0.66029371    -0.23500
H983        H  0.03975438  0.59811282  0.57892691     0.17700
C984        C  0.10405826  0.61070469  0.52875284     0.25700
C985        C  0.11448373  0.60173159  0.48779908    -0.12000
C986        C  0.09963105  0.59983279  0.44750786    -0.26000
C987        C  0.07366377  0.60608491  0.44967309     0.36600
C988        C  0.06322510  0.61495854  0.49091803    -0.27600
F989        F  0.11895081  0.61226838  0.56699131    -0.19800
H990        H  0.13441484  0.59683496  0.48748396     0.15900
F991        F  0.05846970  0.60430523  0.41187884    -0.23500
H992        H  0.04336008  0.62009486  0.49190901     0.17700
C993        C  0.09059971  0.57276743  0.09929021    -0.27500
C994        C  0.10937513  0.58046062  0.06841828     0.06100
C995        C  0.13478345  0.58120808  0.08318249     0.25700
C996        C  0.14104280  0.57543255  0.12902294    -0.12000
C997        C  0.12199177  0.56917203  0.16076939    -0.26000
C998        C  0.09670537  0.56722834  0.14500710     0.36500
C999        C  0.10161994  0.59110031  0.02343136     0.06100
F1000       F  0.15335886  0.58835431  0.05364823    -0.19700
H1001       H  0.16059633  0.57699639  0.14011788     0.15900
F1002       F  0.07756820  0.56096713  0.17403120    -0.23500
H1003       H  0.07090242  0.57241258  0.08861821     0.17700
C1004       C  0.08616414  0.57734448  0.99268071     0.25700
C1005       C  0.07674318  0.58901992  0.95264241    -0.12000
C1006       C  0.08200986  0.61468984  0.94381045    -0.26000
C1007       C  0.09772200  0.62824014  0.97436875     0.36600
C1008       C  0.10749976  0.61646502  0.01363064    -0.27600
F1009       F  0.08011000  0.55277190  0.00160232    -0.19800
H1010       H  0.06493953  0.57823619  0.92909492     0.15900
F1011       F  0.10404158  0.65279664  0.96580787    -0.23500
H1012       H  0.11909196  0.62743442  0.03725940     0.17700
C1013       C  0.09776999  0.70153095  0.31695834    -0.27500
C1014       C  0.09289958  0.70925876  0.27138956     0.06100
C1015       C  0.09642494  0.69166311  0.23537171     0.25700
C1016       C  0.10460813  0.66681447  0.24496448    -0.12000
C1017       C  0.11007149  0.65923988  0.29048732    -0.26000
C1018       C  0.10646766  0.67687783  0.32648917     0.36500
C1019       C  0.08510204  0.73588764  0.26131486     0.06100
F1020       F  0.09171770  0.69847772  0.19091917    -0.19700
H1021       H  0.10709727  0.65359885  0.21670094     0.15900
F1022       F  0.11080894  0.67012300  0.37108877    -0.23500
H1023       H  0.09523787  0.71477894  0.34515815     0.17700
C1024       C  0.06282972  0.74643114  0.27994691     0.25700
C1025       C  0.05530421  0.77125496  0.26806431    -0.12000
C1026       C  0.06986743  0.78589163  0.23741994    -0.26000
C1027       C  0.09269979  0.77560872  0.22056022     0.36600
C1028       C  0.10009803  0.75090020  0.23227459    -0.27600
F1029       F  0.04779477  0.73232613  0.30788775    -0.19800
H1030       H  0.03759869  0.77862267  0.28128543     0.15900
F1031       F  0.10789388  0.78943698  0.19241895    -0.23500
H1032       H  0.11757374  0.74335760  0.21835881     0.17700
C1033       C  0.40037564  0.46372768  0.75250100    -0.27500
C1034       C  0.42520445  0.46386062  0.73574311     0.06100
C1035       C  0.43164876  0.48110973  0.70052612     0.25700
C1036       C  0.41439793  0.49980530  0.68631380    -0.12000
C1037       C  0.39031861  0.50142172  0.70656997    -0.26000
C1038       C  0.38298950  0.48221216  0.73803338     0.36500
C1039       C  0.44498077  0.44822228  0.75872068     0.06100
F1040       F  0.45510410  0.48063104  0.68151595    -0.19700
H1041       H  0.42043501  0.51386143  0.66135822     0.15900
F1042       F  0.35963413  0.48220374  0.75747235    -0.23500
H1043       H  0.39491854  0.45034251  0.77909703     0.17700
C1044       C  0.46674020  0.46001247  0.77665905     0.25700
C1045       C  0.48599308  0.44553931  0.79672253    -0.12000
C1046       C  0.48400807  0.41896361  0.79976860    -0.26000
C1047       C  0.46149442  0.40723367  0.78443774     0.36600
C1048       C  0.44211888  0.42184242  0.76415822    -0.27600
F1049       F  0.46940822  0.48564870  0.77474569    -0.19800
H1050       H  0.50286903  0.45517784  0.80882737     0.15900
F1051       F  0.45871739  0.38162930  0.78672755    -0.23500
H1052       H  0.42523971  0.41248417  0.75136738     0.17700
C1053       C  0.18224427  0.64642541  0.79756220    -0.27500
C1054       C  0.18837783  0.62721598  0.76624917     0.06100
C1055       C  0.16899228  0.61370955  0.74390600     0.25700
C1056       C  0.14364726  0.61887872  0.75398599    -0.12000
C1057       C  0.13733487  0.63740462  0.78691370    -0.26000
C1058       C  0.15695283  0.65150219  0.80804102     0.36500
C1059       C  0.21499272  0.62021712  0.75882707     0.06100
F1060       F  0.17467255  0.59533186  0.71274709    -0.19700
H1061       H  0.12901774  0.60790847  0.73694766     0.15900
F1062       F  0.15181751  0.67003071  0.83920534    -0.23500
H1063       H  0.19709584  0.65699715  0.81483171     0.17700
C1064       C  0.23137131  0.63631080  0.73455609     0.25700
C1065       C  0.25585088  0.62812732  0.72392747    -0.12000
C1066       C  0.26423777  0.60384277  0.73756955    -0.26000
C1067       C  0.24826677  0.58855876  0.76475115     0.36600
C1068       C  0.22376983  0.59667583  0.77487439    -0.27600
F1069       F  0.22326331  0.65931996  0.71917843    -0.19800
H1070       H  0.26780355  0.64034308  0.70329699     0.15900
F1071       F  0.25603857  0.56554026  0.78069658    -0.23500
H1072       H  0.21140126  0.58437321  0.79451921     0.17700
C1073       C  0.27616629  0.53156935  0.51187353    -0.27500
C1074       C  0.25133835  0.52435545  0.52323535     0.06100
C1075       C  0.24572490  0.51900634  0.56981620     0.25700
C1076       C  0.26379297  0.52352739  0.60455866    -0.12000
C1077       C  0.28771340  0.53325219  0.59332924    -0.26000
C1078       C  0.29415379  0.53615037  0.54659690     0.36500
C1079       C  0.23082441  0.52685827  0.48785242     0.06100
F1080       F  0.22222550  0.51107672  0.58197031    -0.19700
H1081       H  0.25839431  0.52142213  0.64040439     0.15900
F1082       F  0.31722197  0.54542400  0.53480624    -0.23500
H1083       H  0.28102856  0.53576684  0.47638145     0.17700
C1084       C  0.21026325  0.54329262  0.49611968     0.25700
C1085       C  0.19325604  0.54940852  0.46068483    -0.12000
C1086       C  0.19609703  0.53924440  0.41624429    -0.26000
C1087       C  0.21588273  0.52189647  0.40816995     0.36600
C1088       C  0.23321670  0.51591852  0.44368833    -0.27600
F1089       F  0.20781735  0.55524328  0.53737388    -0.19800
H1090       H  0.17845201  0.56320954  0.46737977     0.15900
F1091       F  0.21966454  0.51241298  0.36519697    -0.23500
H1092       H  0.24908810  0.50352697  0.43625716     0.17700
C1093       C  0.55243065  0.54915755  0.30482374    -0.27500
C1094       C  0.55946532  0.56631592  0.26990261     0.06100
C1095       C  0.58485371  0.56678457  0.25559414     0.25700
C1096       C  0.60246507  0.54967990  0.27443725    -0.12000
C1097       C  0.59524281  0.53158013  0.30787732    -0.26000
C1098       C  0.57002840  0.53197256  0.32367356     0.36500
C1099       C  0.54014786  0.58326198  0.24810856     0.06100
F1100       F  0.59233524  0.58277345  0.22145840    -0.19700
H1101       H  0.62158729  0.54985364  0.26103471     0.15900
F1102       F  0.56198857  0.51504776  0.35578383    -0.23500
H1103       H  0.53305632  0.54875648  0.31697505     0.17700
C1104       C  0.51745300  0.57326418  0.23009044     0.25700
C1105       C  0.49865159  0.58944691  0.21236526    -0.12000
C1106       C  0.50189101  0.61596117  0.21276022    -0.26000
C1107       C  0.52507313  0.62588082  0.22899158     0.36600
C1108       C  0.54400184  0.60964910  0.24617692    -0.27600
F1109       F  0.51330723  0.54781725  0.23019483    -0.19800
H1110       H  0.48097259  0.58124408  0.20054381     0.15900
F1111       F  0.52918179  0.65133515  0.22953293    -0.23500
H1112       H  0.56134776  0.61780150  0.25965245     0.17700
C1113       C  0.35134063  0.59446750  0.91600032    -0.27500
C1114       C  0.37662645  0.59255915  0.93068853     0.06100
C1115       C  0.39466869  0.58160945  0.90155478     0.25700
C1116       C  0.38762520  0.57306437  0.85781752    -0.12000
C1117       C  0.36244222  0.57542578  0.84213821    -0.26000
C1118       C  0.34420303  0.58596703  0.87196975     0.36500
C1119       C  0.38486066  0.60370985  0.97479628     0.06100
F1120       F  0.41929931  0.57997225  0.91497599    -0.19700
H1121       H  0.40213059  0.56515172  0.83570775     0.15900
F1122       F  0.31985052  0.58923175  0.85788958    -0.23500
H1123       H  0.33732756  0.60321917  0.93813339     0.17700
C1124       C  0.39453713  0.62846458  0.97564104     0.25700
C1125       C  0.40432389  0.63847996  0.01652554    -0.12000
C1126       C  0.40452105  0.62405703  0.05750577    -0.26000
C1127       C  0.39455830  0.59918188  0.05652677     0.36600
C1128       C  0.38492813  0.58912517  0.01529538    -0.27600
F1129       F  0.39458860  0.64290474  0.93675570    -0.19800
H1130       H  0.41151123  0.65775258  0.01610086     0.15900
F1131       F  0.39374230  0.58468639  0.09529570    -0.23500
H1132       H  0.37763292  0.56989088  0.01484027     0.17700
C1133       C  0.42067353  0.65788079  0.42331561    -0.27500
C1134       C  0.41724882  0.63209420  0.43413651     0.06100
C1135       C  0.42217726  0.61360645  0.40080315     0.25700
C1136       C  0.42963978  0.62071253  0.35669582    -0.12000
C1137       C  0.43215081  0.64651057  0.34449331    -0.26000
C1138       C  0.42819221  0.66514363  0.37870515     0.36500
C1139       C  0.40587562  0.62403415  0.47802170     0.06100
F1140       F  0.41861911  0.58860992  0.41044683    -0.19700
H1141       H  0.43259114  0.60579798  0.33155634     0.15900
F1142       F  0.43070652  0.69022566  0.36881184    -0.23500
H1143       H  0.41673780  0.67233147  0.44890626     0.17700
C1144       C  0.42100931  0.61727219  0.51603101     0.25700
C1145       C  0.40995063  0.60635755  0.55517649    -0.12000
C1146       C  0.38368956  0.60175494  0.55662463    -0.26000
C1147       C  0.36868536  0.60853475  0.51805413     0.36600
C1148       C  0.37976623  0.61958540  0.47931164    -0.27600
F1149       F  0.44646075  0.62079734  0.51487272    -0.19800
H1150       H  0.42193472  0.60152911  0.58434371     0.15900
F1151       F  0.34322703  0.60490880  0.51777460    -0.23500
H1152       H  0.36800645  0.62425938  0.44972990     0.17700
C1153       C  0.31605306  0.61870514  0.26209248    -0.27500
C1154       C  0.29651062  0.62629243  0.23211965     0.06100
C1155       C  0.30232285  0.64069061  0.19282869     0.25700
C1156       C  0.32743347  0.64736309  0.18365989    -0.12000
C1157       C  0.34719274  0.63980404  0.21356930    -0.26000
C1158       C  0.34117133  0.62541470  0.25314943     0.36500
C1159       C  0.27018021  0.61867557  0.24183911     0.06100
F1160       F  0.28379218  0.64766150  0.16269367    -0.19700
H1161       H  0.33141043  0.65821682  0.15276499     0.15900
F1162       F  0.35943709  0.61774614  0.28326969    -0.23500
H1163       H  0.31178705  0.60759768  0.29257878     0.17700
C1164       C  0.26353986  0.59291575  0.24195251     0.25700
C1165       C  0.23901843  0.58558339  0.25364179    -0.12000
C1166       C  0.22065480  0.60375778  0.26611515    -0.26000
C1167       C  0.22726016  0.62969822  0.26503272     0.36600
C1168       C  0.25182441  0.63702535  0.25265517    -0.27600
F1169       F  0.28086073  0.57482249  0.23097804    -0.19800
H1170       H  0.23464820  0.56549512  0.25401388     0.15900
F1171       F  0.21030605  0.64794022  0.27693084    -0.23500
H1172       H  0.25676168  0.65698490  0.25276106     0.17700
C1173       C  0.36922754  0.77825271  0.23793715    -0.27500
C1174       C  0.38703773  0.79770917  0.24416179     0.06100
C1175       C  0.41296913  0.79193297  0.24276374     0.25700
C1176       C  0.42091366  0.76700234  0.23517297    -0.12000
C1177       C  0.40315891  0.74740968  0.22852649    -0.26000
C1178       C  0.37713093  0.75331410  0.22981626     0.36500
C1179       C  0.37842765  0.82363003  0.25522722     0.06100
F1180       F  0.43060021  0.81027832  0.24990500    -0.19700
H1181       H  0.44105239  0.76312927  0.23392943     0.15900
F1182       F  0.35929820  0.73510105  0.22334301    -0.23500
H1183       H  0.34914799  0.78245324  0.23925350     0.17700
C1184       C  0.38549424  0.84458399  0.22809848     0.25700
C1185       C  0.37793583  0.86909944  0.24066866    -0.12000
C1186       C  0.36328926  0.87303077  0.28050423    -0.26000
C1187       C  0.35598993  0.85181002  0.30711909     0.36600
C1188       C  0.36345705  0.82742661  0.29435590    -0.27600
F1189       F  0.39949251  0.84129718  0.18934730    -0.19800
H1190       H  0.38366107  0.88498865  0.21937387     0.15900
F1191       F  0.34212707  0.85449416  0.34617852    -0.23500
H1192       H  0.35800925  0.81144987  0.31571154     0.17700
C1193       C  0.54139055  0.98751492  0.71523013    -0.27500
C1194       C  0.54934415  0.96710143  0.74314171     0.06100
C1195       C  0.57514686  0.96498555  0.75465626     0.25700
C1196       C  0.59207058  0.98426353  0.74239383    -0.12000
C1197       C  0.58369239  0.00593689  0.71809357    -0.26000
C1198       C  0.55836310  0.00668580  0.70245634     0.36500
C1199       C  0.53040184  0.94930683  0.76292294     0.06100
F1200       F  0.58366826  0.94528636  0.78078418    -0.19700
H1201       H  0.61149712  0.98286316  0.75430320     0.15900
F1202       F  0.54949317  0.02665566  0.67740633    -0.23500
H1203       H  0.52172378  0.98910645  0.70478782     0.17700
C1204       C  0.50933063  0.95872049  0.78715552     0.25700
C1205       C  0.49113257  0.94209028  0.80486230    -0.12000
C1206       C  0.49339028  0.91571538  0.79847437    -0.26000
C1207       C  0.51508106  0.90623796  0.77591298     0.36600
C1208       C  0.53337135  0.92290989  0.75845001    -0.27600
F1209       F  0.50626790  0.98408766  0.79356210    -0.19800
H1210       H  0.47465390  0.94999911  0.82175936     0.15900
F1211       F  0.51833462  0.88088565  0.76961195    -0.23500
H1212       H  0.54953330  0.91521317  0.74027326     0.17700
C1213       C  0.40285368  0.74509950  0.74211646    -0.27500
C1214       C  0.37864346  0.73632758  0.75313067     0.06100
C1215       C  0.36145035  0.75283584  0.77475842     0.25700
C1216       C  0.36882366  0.77769196  0.78625944    -0.12000
C1217       C  0.39343407  0.78639061  0.77626232    -0.26000
C1218       C  0.41023479  0.76979284  0.75327910     0.36500
C1219       C  0.37208388  0.70968109  0.74246578     0.06100
F1220       F  0.33786175  0.74468806  0.78581798    -0.19700
H1221       H  0.35550891  0.78988095  0.80404745     0.15900
F1222       F  0.43405107  0.77716829  0.74204449    -0.23500
H1223       H  0.41622548  0.73260517  0.72513034     0.17700
C1224       C  0.35873801  0.70362396  0.70201977     0.25700
C1225       C  0.35520049  0.67819950  0.68948236    -0.12000
C1226       C  0.36491848  0.65829938  0.71703667    -0.26000
C1227       C  0.37783191  0.66453820  0.75822792     0.36600
C1228       C  0.38146455  0.69001500  0.77050590    -0.27600
F1229       F  0.34983869  0.72231848  0.67393012    -0.19800
H1230       H  0.34509211  0.67413397  0.65772004     0.15900
F1231       F  0.38713517  0.64614479  0.78654386    -0.23500
H1232       H  0.39198070  0.69446270  0.80166941     0.17700
C1233       C  0.46020847  0.80159642  0.00328914    -0.27500
C1234       C  0.47718833  0.78162940  0.99462955     0.06100
C1235       C  0.48818224  0.77985301  0.95041994     0.25700
C1236       C  0.48075138  0.79657102  0.91484519    -0.12000
C1237       C  0.46205559  0.81503769  0.92279985    -0.26000
C1238       C  0.45263757  0.81800239  0.96783622     0.36500
C1239       C  0.47956093  0.76069792  0.02920361     0.06100
F1240       F  0.50511644  0.76114793  0.94107819    -0.19700
H1241       H  0.48822272  0.79389515  0.88043044     0.15900
F1242       F  0.43490033  0.83593232  0.97695583    -0.23500
H1243       H  0.45125634  0.80335463  0.03671494     0.17700
C1244       C  0.48344649  0.76574579  0.07653959     0.25700
C1245       C  0.47945790  0.74665064  0.10963651    -0.12000
C1246       C  0.47132553  0.72237964  0.09613445    -0.26000
C1247       C  0.46899880  0.71691177  0.04887813     0.36600
C1248       C  0.47335500  0.73580258  0.01580232    -0.27600
F1249       F  0.48950575  0.78951037  0.09096505    -0.19800
H1250       H  0.48064383  0.75142381  0.14595659     0.15900
F1251       F  0.46035613  0.69388135  0.03490263    -0.23500
H1252       H  0.46972149  0.73148251  0.97983401     0.17700
C1253       C  0.30916374  0.92805596  0.76730923    -0.27500
C1254       C  0.28846758  0.91484318  0.78565592     0.06100
C1255       C  0.29291608  0.89373902  0.81431473     0.25700
C1256       C  0.31775341  0.88564367  0.82340348    -0.12000
C1257       C  0.33857115  0.89842770  0.80398286    -0.26000
C1258       C  0.33396269  0.92013191  0.77653304     0.36500
C1259       C  0.26248835  0.92160333  0.77055587     0.06100
F1260       F  0.27323390  0.88025361  0.83167258    -0.19700
H1261       H  0.32065198  0.86902456  0.84487236     0.15900
F1262       F  0.35334461  0.93381225  0.75855128    -0.23500
H1263       H  0.30604587  0.94439209  0.74519763     0.17700
C1264       C  0.24368682  0.92920747  0.80193179     0.25700
C1265       C  0.21916829  0.93511152  0.78610921    -0.12000
C1266       C  0.21305201  0.93328467  0.73887115    -0.26000
C1267       C  0.23220678  0.92591442  0.70768451     0.36600
C1268       C  0.25653416  0.92024038  0.72350973    -0.27600
F1269       F  0.24918302  0.93138854  0.84757419    -0.19800
H1270       H  0.20497221  0.94100536  0.81077745     0.15900
F1271       F  0.22770678  0.92452045  0.66155788    -0.23500
H1272       H  0.27082616  0.91451761  0.69885000     0.17700
C1273       C  0.40969604  0.92015585  0.61164472    -0.27500
C1274       C  0.40733236  0.90157603  0.57747542     0.06100
C1275       C  0.41363279  0.87624618  0.58821307     0.25700
C1276       C  0.42071269  0.86952181  0.63352668    -0.12000
C1277       C  0.42199741  0.88806027  0.66845870    -0.26000
C1278       C  0.41706362  0.91368437  0.65638718     0.36500
C1279       C  0.39629279  0.90891968  0.53223767     0.06100
F1280       F  0.41180183  0.85790410  0.55550198    -0.19700
H1281       H  0.42459929  0.84978066  0.64148496     0.15900
F1282       F  0.41841255  0.93265576  0.68802837    -0.23500
H1283       H  0.40517998  0.93979952  0.60382822     0.17700
C1284       C  0.37163701  0.91896522  0.53026358     0.25700
C1285       C  0.36143052  0.92742024  0.48839566    -0.12000
C1286       C  0.37561218  0.92625063  0.44744418    -0.26000
C1287       C  0.40037757  0.91606663  0.44945379     0.36600
C1288       C  0.41053177  0.90741697  0.49155213    -0.27600
F1289       F  0.35730138  0.92038126  0.56898884    -0.19800
H1290       H  0.34229983  0.93487520  0.48812654     0.15900
F1291       F  0.41467638  0.91407365  0.41079784    -0.23500
H1292       H  0.42962714  0.89987984  0.49254990     0.17700
C1293       C  0.38592070  0.96424542  0.10182820    -0.27500
C1294       C  0.37179338  0.94622540  0.07732917     0.06100
C1295       C  0.34837825  0.93796578  0.09457409     0.25700
C1296       C  0.33990589  0.94662178  0.13727535    -0.12000
C1297       C  0.35500588  0.96309991  0.16350279    -0.26000
C1298       C  0.37770313  0.97253521  0.14493060     0.36500
C1299       C  0.38263847  0.93419711  0.03625478     0.06100
F1300       F  0.33435093  0.92064087  0.07105422    -0.19700
H1301       H  0.32250595  0.93899816  0.15130422     0.15900
F1302       F  0.39246702  0.98881544  0.16942666    -0.23500
H1303       H  0.40398878  0.97074037  0.08877352     0.17700
C1304       C  0.38792218  0.94838018  0.99651105     0.25700
C1305       C  0.39683128  0.93616959  0.95700740    -0.12000
C1306       C  0.40064581  0.90966923  0.95675394    -0.26000
C1307       C  0.39647170  0.89580972  0.99769749     0.36600
C1308       C  0.38752750  0.90805511  0.03695769    -0.27600
F1309       F  0.38334552  0.97376416  0.99530551    -0.19800
H1310       H  0.39987660  0.94737055  0.92613474     0.15900
F1311       F  0.39986202  0.87029159  0.99953572    -0.23500
H1312       H  0.38391376  0.89702171  0.06785587     0.17700
loop_ 
_geom_bond_atom_site_label_1 
_geom_bond_atom_site_label_2 
_geom_bond_distance 
_geom_bond_site_symmetry_2 
_ccdc_geom_bond_type 
O1          Cr19   1.994       .  S
O1            C9   1.262       .  A
O2          Cr19   1.982       .  S
O2            C3   1.261       .  A
C3            O4   1.264       .  A
C3         C1206   1.486       .  S
O4          Cr20   2.005       .  S
O5          Cr20   2.005       .  S
O5            C6   1.269       .  A
C6            O7   1.267       .  A
C6         C1237   1.483       .  S
O7          Cr21   1.998       .  S
O8          Cr21   1.971       .  S
O8            C9   1.258       .  A
C9         C1306   1.478       .  S
O10         Cr19   1.974       .  S
O10          C18   1.260       .  A
O11         Cr19   1.990       .  S
O11          C12   1.263       .  A
C12          O13   1.270       .  A
C12        C1277   1.491       .  S
O13         Cr20   2.008       .  S
O14         Cr20   1.998       .  S
O14          C15   1.263       .  A
C15          O16   1.262       .  A
C15        C1217   1.490       .  S
O16         Cr21   1.992       .  S
O17         Cr21   2.010       .  S
O17          C18   1.266       .  A
C18        C1257   1.487       .  S
Cr19         O22   1.775       .  S
Cr20         O22   1.778       .  S
Cr21         O22   1.776       .  S
O23         Cr41   2.016       .  S
O23          C31   1.266       .  A
O24         Cr41   1.983       .  S
O24          C25   1.265       .  A
C25          O26   1.268       .  A
C25        C1106   1.487       .  S
O26         Cr42   2.012       .  S
O27         Cr42   1.998       .  S
O27          C28   1.267       .  A
C28          O29   1.265       .  A
C28        C1246   1.474       .  S
O29         Cr43   1.997       .  S
O30         Cr43   1.963       .  S
O30          C31   1.257       .  A
C31        C1126   1.483       .  S
O32         Cr41   1.977       .  S
O32          C40   1.259       .  A
O33         Cr41   1.991       .  S
O33          C34   1.263       .  A
C34          O35   1.265       .  A
C34        C1137   1.486       .  S
O35         Cr42   2.000       .  S
O36         Cr42   2.001       .  S
O36          C37   1.264       .  A
C37          O38   1.258       .  A
C37        C1177   1.478       .  S
O38         Cr43   1.972       .  S
O39         Cr43   2.007       .  S
O39          C40   1.265       .  A
C40        C1157   1.485       .  S
Cr41         O44   1.774       .  S
Cr42         O44   1.777       .  S
Cr43         O44   1.768       .  S
O45         Cr63   1.964       .  S
O45          C53   1.257       .  A
O46         Cr63   2.001       .  S
O46          C47   1.266       .  A
C47          O48   1.266       .  A
C47        C1077   1.476       .  S
O48         Cr64   1.997       .  S
O49         Cr64   2.000       .  S
O49          C50   1.265       .  A
C50          O51   1.267       .  A
C50        C1037   1.488       .  S
O51         Cr65   1.992       .  S
O52         Cr65   2.012       .  S
O52          C53   1.266       .  A
C53        C1146   1.482       .  S
O54         Cr63   2.003       .  S
O54          C62   1.265       .  A
O55         Cr63   1.972       .  S
O55          C56   1.256       .  A
C56          O57   1.262       .  A
C56        C1066   1.475       .  S
O57         Cr64   1.995       .  S
O58         Cr64   1.993       .  S
O58          C59   1.263       .  A
C59          O60   1.263       .  A
C59        C1117   1.482       .  S
O60         Cr65   1.997       .  S
O61         Cr65   1.988       .  S
O61          C62   1.262       .  A
C62        C1226   1.489       .  S
Cr63         O66   1.766       .  S
Cr64         O66   1.773       .  S
Cr65         O66   1.773       .  S
O67         Cr85   1.963       .  S
O67          C75   1.258       .  A
O68         Cr85   1.999       .  S
O68          C69   1.266       .  A
C69          O70   1.268       .  A
C69        C1086   1.480       .  S
O70         Cr86   2.002       .  S
O71         Cr86   2.010       .  S
O71          C72   1.266       .  A
C72          O73   1.263       .  A
C72         C966   1.494       .  S
O73         Cr87   1.986       .  S
O74         Cr87   2.007       .  S
O74          C75   1.266       .  A
C75         C986   1.479       .  S
O76         Cr85   2.012       .  S
O76          C84   1.264       .  A
O77         Cr85   1.985       .  S
O77          C78   1.262       .  A
C78          O79   1.264       .  A
C78        C1166   1.485       .  S
O79         Cr86   1.999       .  S
O80         Cr86   1.990       .  S
O80          C81   1.265       .  A
C81          O82   1.263       .  A
C81         C997   1.479       .  S
O82         Cr87   1.988       .  S
O83         Cr87   1.990       .  S
O83          C84   1.260       .  A
C84        C1017   1.487       .  S
Cr85         O88   1.770       .  S
Cr86         O88   1.777       .  S
Cr87         O88   1.775       .  S
O89        Cr107   1.978       .  S
O89          C97   1.258       .  A
O90        Cr107   1.981       .  S
O90          C91   1.259   1_455  A
C91          O92   1.266       .  A
C91         C857   1.486       .  S
O92        Cr108   2.004   1_655  S
O93        Cr108   2.040       .  S
O93          C94   1.275       .  A
C94          O95   1.261       .  A
C94         C897   1.493       .  S
O95        Cr109   1.965       .  S
O96        Cr109   1.993       .  S
O96          C97   1.263       .  A
C97         C946   1.466       .  S
O98        Cr107   2.005       .  S
O98         C106   1.265       .  A
O99        Cr107   1.947       .  S
O99         C100   1.258       .  A
C100        O101   1.272       .  A
C100        C926   1.474       .  S
O101       Cr108   2.023       .  S
O102       Cr108   1.998       .  S
O102        C103   1.262       .  A
C103        O104   1.260       .  A
C103       C1026   1.486       .  S
O104       Cr109   1.990       .  S
O105       Cr109   1.990       .  S
O105        C106   1.263       .  A
C106        C877   1.484       .  S
Cr107       O110   1.771       .  S
Cr108       O110   1.786       .  S
Cr109       O110   1.769       .  S
O111       Cr129   2.009       .  S
O111        C119   1.264       .  A
O112       Cr129   1.980       .  S
O112        C113   1.264       .  A
C113        O114   1.268       .  A
C113        C817   1.488   1_455  S
O114       Cr130   2.013       .  S
O115       Cr130   1.998       .  S
O115        C116   1.267       .  A
C116        O117   1.264       .  A
C116        C906   1.476       .  S
O117       Cr131   1.993       .  S
O118       Cr131   1.960       .  S
O118        C119   1.257       .  A
C119       C1006   1.468       .  S
O120       Cr129   1.984       .  S
O120        C128   1.261       .  A
O121       Cr129   1.996       .  S
O121        C122   1.262       .  A
C122        O123   1.262       .  A
C122        C977   1.468       .  S
O123       Cr130   1.989       .  S
O124       Cr130   2.003       .  S
O124        C125   1.265       .  A
C125        O126   1.257       .  A
C125        C837   1.479       .  S
O126       Cr131   1.973       .  S
O127       Cr131   1.994       .  S
O127        C128   1.262       .  A
C128       C1057   1.480       .  S
Cr129       O132   1.777       .  S
Cr130       O132   1.773       .  S
Cr131       O132   1.767       .  S
O133       Cr151   1.970       .  S
O133        C141   1.261       .  A
O134       Cr151   1.986       .  S
O134        C135   1.264       .  A
C135        O136   1.266       .  A
C135        C806   1.470       .  S
O136       Cr152   1.996       .  S
O137       Cr152   2.021   1_545  S
O137        C138   1.268       .  A
C138        O139   1.264   1_545  A
C138        C786   1.495       .  S
O139       Cr153   1.984       .  S
O140       Cr153   2.021       .  S
O140        C141   1.269       .  A
C141       C1286   1.488       .  S
O142       Cr151   1.989       .  S
O142        C150   1.260       .  A
O143       Cr151   1.981       .  S
O143        C144   1.260       .  A
C144        O145   1.268       .  A
C144        C886   1.490       .  S
O145       Cr152   2.021       .  S
O146       Cr152   1.978       .  S
O146        C147   1.262       .  A
C147        O148   1.264       .  A
C147       C1297   1.463       .  S
O148       Cr153   1.996       .  S
O149       Cr153   1.981       .  S
O149        C150   1.258       .  A
C150       C1186   1.480       .  S
Cr151       O154   1.766       .  S
Cr152       O154   1.776       .  S
Cr153       O154   1.774       .  S
O155       Cr173   1.999       .  S
O155        C163   1.263       .  A
O156       Cr173   1.970       .  S
O156        C157   1.263       .  A
C157        O158   1.273       .  A
C157        C797   1.478       .  S
O158       Cr174   2.027       .  S
O159       Cr174   1.996   1_545  S
O159        C160   1.264       .  A
C160        O161   1.259   1_545  A
C160        C766   1.476       .  S
O161       Cr175   1.980       .  S
O162       Cr175   1.974       .  S
O162        C163   1.256       .  A
C163        C917   1.466       .  S
O164       Cr173   1.986       .  S
O164        C172   1.263       .  A
O165       Cr173   1.990       .  S
O165        C166   1.260       .  A
C166        O167   1.261       .  A
C166       C1266   1.487       .  S
O167       Cr174   1.996       .  S
O168       Cr174   2.013       .  S
O168        C169   1.268       .  A
C169        O170   1.258       .  A
C169        C937   1.471       .  S
O170       Cr175   1.950       .  S
O171       Cr175   2.002       .  S
O171        C172   1.266       .  A
C172        C846   1.481       .  S
Cr173       O176   1.769       .  S
Cr174       O176   1.779       .  S
Cr175       O176   1.766       .  S
O177       Cr195   2.013       .  S
O177        C185   1.269       .  A
O178       Cr195   1.990       .  S
O178        C179   1.264       .  A
C179        O180   1.264       .  A
C179       C1097   1.494       .  S
O180       Cr196   2.003       .  S
O181       Cr196   2.004       .  S
O181        C182   1.266       .  A
C182        O183   1.262       .  A
C182        C686   1.471       .  S
O183       Cr197   1.995       .  S
O184       Cr197   1.972       .  S
O184        C185   1.260       .  A
C185        C746   1.487       .  S
O186       Cr195   1.990       .  S
O186        C194   1.261       .  A
O187       Cr195   1.994       .  S
O187        C188   1.265       .  A
C188        O189   1.267       .  A
C188        C726   1.478       .  S
O189       Cr196   1.996       .  S
O190       Cr196   2.011       .  S
O190        C191   1.267       .  A
C191        O192   1.259       .  A
C191        C666   1.483       .  S
O192       Cr197   1.974       .  S
O193       Cr197   2.004       .  S
O193        C194   1.263       .  A
C194        C697   1.494       .  S
Cr195       O198   1.771       .  S
Cr196       O198   1.776       .  S
Cr197       O198   1.772       .  S
O199       Cr217   2.009       .  S
O199        C207   1.266       .  A
O200       Cr217   1.974       .  S
O200        C201   1.261       .  A
C201        O202   1.268       .  A
C201        C826   1.485       .  S
O202       Cr218   2.013       .  S
O203       Cr218   1.994       .  S
O203        C204   1.265       .  A
C204        O205   1.266       .  A
C204        C677   1.477       .  S
O205       Cr219   2.000       .  S
O206       Cr219   1.982       .  S
O206        C207   1.263       .  A
C207        C577   1.488       .  S
O208       Cr217   1.974       .  S
O208        C216   1.259       .  A
O209       Cr217   2.000       .  S
O209        C210   1.263       .  A
C210        O211   1.262       .  A
C210        C597   1.480       .  S
O211       Cr218   1.989       .  S
O212       Cr218   2.003       .  S
O212        C213   1.266       .  A
C213        O214   1.261       .  A
C213        C637   1.481       .  S
O214       Cr219   1.983       .  S
O215       Cr219   1.999       .  S
O215        C216   1.263       .  A
C216        C626   1.472       .  S
Cr217       O220   1.769       .  S
Cr218       O220   1.770       .  S
Cr219       O220   1.769       .  S
O221       Cr239   1.966       .  S
O221        C229   1.258       .  A
O222       Cr239   1.993       .  S
O222        C223   1.265       .  A
C223        O224   1.267       .  A
C223        C557   1.478       .  S
O224       Cr240   2.000       .  S
O225       Cr240   2.030       .  S
O225        C226   1.271       .  A
C226        O227   1.259       .  A
C226        C957   1.494   1_655  S
O227       Cr241   1.973       .  S
O228       Cr241   2.017       .  S
O228        C229   1.267       .  A
C229        C606   1.486       .  S
O230       Cr239   2.003       .  S
O230        C238   1.264       .  A
O231       Cr239   1.984       .  S
O231        C232   1.261       .  A
C232        O233   1.268       .  A
C232        C537   1.493       .  S
O233       Cr240   2.021       .  S
O234       Cr240   1.991       .  S
O234        C235   1.264       .  A
C235        O236   1.266       .  A
C235        C586   1.480       .  S
O236       Cr241   2.009       .  S
O237       Cr241   1.976       .  S
O237        C238   1.259       .  A
C238        C657   1.483       .  S
Cr239       O242   1.766       .  S
Cr240       O242   1.776       .  S
Cr241       O242   1.775       .  S
O243       Cr261   1.982       .  S
O243        C251   1.263       .  A
O244       Cr261   1.972       .  S
O244        C245   1.262       .  A
C245        O246   1.274       .  A
C245        C566   1.489       .  S
O246       Cr262   2.034       .  S
O247       Cr262   1.984       .  S
O247        C248   1.263       .  A
C248        O249   1.266       .  A
C248        C757   1.490       .  S
O249       Cr263   2.006       .  S
O250       Cr263   1.986       .  S
O250        C251   1.264       .  A
C251        C486   1.474       .  S
O252       Cr261   1.994       .  S
O252        C260   1.262       .  A
O253       Cr261   1.983       .  S
O253        C254   1.258       .  A
C254        O255   1.258       .  A
C254        C617   1.473       .  S
O255       Cr262   1.981       .  S
O256       Cr262   2.019       .  S
O256        C257   1.269       .  A
C257        O258   1.259       .  A
C257        C506   1.476       .  S
O258       Cr263   1.964       .  S
O259       Cr263   2.002       .  S
O259        C260   1.264       .  A
C260        C517   1.473       .  S
Cr261       O264   1.765       .  S
Cr262       O264   1.775       .  S
Cr263       O264   1.770       .  S
O265       Cr283   2.006       .  S
O265        C273   1.265       .  A
O266       Cr283   1.983       .  S
O266        C267   1.262       .  A
C267        O268   1.269       .  A
C267       C1197   1.489       .  S
O268       Cr284   2.013       .  S
O269       Cr284   1.993       .  S
O269        C270   1.266       .  A
C270        O271   1.267       .  A
C270        C417   1.474       .  S
O271       Cr285   2.000       .  S
O272       Cr285   1.973       .  S
O272        C273   1.259       .  A
C273        C466   1.485       .  S
O274       Cr283   1.980       .  S
O274        C282   1.261       .  A
O275       Cr283   2.001       .  S
O275        C276   1.263       .  A
C276        O277   1.266       .  A
C276        C446   1.486       .  S
O277       Cr284   2.000       .  S
O278       Cr284   2.011       .  S
O278        C279   1.264       .  A
C279        O280   1.258       .  A
C279        C526   1.485       .  S
O280       Cr285   1.979       .  S
O281       Cr285   2.002       .  S
O281        C282   1.265       .  A
C282        C406   1.485       .  S
Cr283       O286   1.773       .  S
Cr284       O286   1.776       .  S
Cr285       O286   1.768       .  S
O287       Cr305   2.020       .  S
O287        C295   1.268       .  A
O288       Cr305   1.987       .  S
O288        C289   1.263       .  A
C289        O290   1.266       .  A
C289        C866   1.493   1_545  S
O290       Cr306   2.008       .  S
O291       Cr306   1.993       .  S
O291        C292   1.265       .  A
C292        O293   1.265       .  A
C292        C426   1.473       .  S
O293       Cr307   2.000       .  S
O294       Cr307   1.958       .  S
O294        C295   1.256       .  A
C295        C497   1.471       .  S
O296       Cr305   1.987       .  S
O296        C304   1.260       .  A
O297       Cr305   1.998       .  S
O297        C298   1.265       .  A
C298        O299   1.263       .  A
C298        C477   1.471       .  S
O299       Cr306   1.979       .  S
O300       Cr306   2.009       .  S
O300        C301   1.266       .  A
C301        O302   1.259       .  A
C301        C377   1.481       .  S
O302       Cr307   1.972       .  S
O303       Cr307   2.015       .  S
O303        C304   1.266       .  A
C304        C546   1.496       .  S
Cr305       O308   1.775       .  S
Cr306       O308   1.776       .  S
Cr307       O308   1.766       .  S
O309       Cr327   1.990       .  S
O309        C317   1.263       .  A
O310       Cr327   1.968       .  S
O310        C311   1.260       .  A
C311        O312   1.273       .  A
C311        C357   1.478       .  S
O312       Cr328   2.035       .  S
O313       Cr328   1.985       .  S
O313        C314   1.262       .  A
C314        O315   1.264       .  A
C314       C1046   1.483       .  S
O315       Cr329   1.994       .  S
O316       Cr329   1.990       .  S
O316        C317   1.262       .  A
C317        C717   1.473       .  S
O318       Cr327   1.987       .  S
O318        C326   1.263       .  A
O319       Cr327   1.993       .  S
O319        C320   1.261       .  A
C320        O321   1.261       .  A
C320        C397   1.486       .  S
O321       Cr328   1.989       .  S
O322       Cr328   2.027       .  S
O322        C323   1.270       .  A
C323        O324   1.258       .  A
C323        C737   1.470       .  S
O324       Cr329   1.968       .  S
O325       Cr329   1.999       .  S
O325        C326   1.265       .  A
C326        C646   1.482       .  S
Cr327       O330   1.764       .  S
Cr328       O330   1.778       .  S
Cr329       O330   1.770       .  S
O331       Cr349   1.984       .  S
O331        C339   1.263       .  A
O332       Cr349   1.994       .  S
O332        C333   1.265       .  A
C333        O334   1.269       .  A
C333        C366   1.480       .  S
O334       Cr350   2.007       .  S
O335       Cr350   2.024       .  S
O335        C336   1.269       .  A
C336        O337   1.262       .  A
C336        C777   1.498       .  S
O337       Cr351   1.982       .  S
O338       Cr351   2.010       .  S
O338        C339   1.267       .  A
C339        C437   1.492       .  S
O340       Cr349   1.998       .  S
O340        C348   1.263       .  A
O341       Cr349   1.990       .  S
O341        C342   1.262       .  A
C342        O343   1.268       .  A
C342        C706   1.496       .  S
O343       Cr350   2.019       .  S
O344       Cr350   1.993       .  S
O344        C345   1.266       .  A
C345        O346   1.264       .  A
C345        C457   1.485       .  S
O346       Cr351   1.996       .  S
O347       Cr351   1.977       .  S
O347        C348   1.258       .  A
C348        C386   1.482       .  S
Cr349       O352   1.772       .  S
Cr350       O352   1.775       .  S
Cr351       O352   1.775       .  S
C353        C354   1.407   1_556  A
C353        C358   1.403       .  A
C353        H363   1.083       .  S
C354        C359   1.492       .  S
C354        C355   1.409       .  A
C355        C356   1.399   1_554  A
C355        F360   1.358       .  S
C356        C357   1.404       .  A
C356        H361   1.084       .  S
C357        C358   1.407       .  A
C358        F362   1.358       .  S
C359        C364   1.411       .  A
C359        C368   1.404       .  A
C364        C365   1.409       .  A
C364        F369   1.357       .  S
C365        C366   1.404       .  A
C365        H370   1.083       .  S
C366        C367   1.407       .  A
C367        C368   1.394       .  A
C367        F371   1.359       .  S
C368        H372   1.083       .  S
C373        C374   1.403       .  A
C373        C378   1.397       .  A
C373        H383   1.083       .  S
C374        C379   1.478       .  S
C374        C375   1.405       .  A
C375        C376   1.396       .  A
C375        F380   1.357       .  S
C376        C377   1.407       .  A
C376        H381   1.083       .  S
C377        C378   1.410       .  A
C378        F382   1.358       .  S
C379        C384   1.404       .  A
C379        C388   1.404       .  A
C384        C385   1.395       .  A
C384        F389   1.357       .  S
C385        C386   1.407       .  A
C385        H390   1.083       .  S
C386        C387   1.410       .  A
C387        C388   1.399       .  A
C387        F391   1.358       .  S
C388        H392   1.083       .  S
C393        C394   1.401       .  A
C393        C398   1.395       .  A
C393        H403   1.083       .  S
C394        C399   1.484       .  S
C394        C395   1.408       .  A
C395        C396   1.402       .  A
C395        F400   1.357       .  S
C396        C397   1.407       .  A
C396        H401   1.083       .  S
C397        C398   1.413       .  A
C398        F402   1.358       .  S
C399        C404   1.404       .  A
C399        C408   1.406       .  A
C404        C405   1.397       .  A
C404        F409   1.357       .  S
C405        C406   1.408       .  A
C405        H410   1.083       .  S
C406        C407   1.410       .  A
C407        C408   1.400       .  A
C407        F411   1.358       .  S
C408        H412   1.083       .  S
C413        C414   1.404       .  A
C413        C418   1.398       .  A
C413        H423   1.083       .  S
C414        C419   1.485       .  S
C414        C415   1.409       .  A
C415        C416   1.404       .  A
C415        F420   1.357       .  S
C416        C417   1.403       .  A
C416        H421   1.083       .  S
C417        C418   1.405       .  A
C418        F422   1.357       .  S
C419        C424   1.409       .  A
C419        C428   1.404       .  A
C424        C425   1.405       .  A
C424        F429   1.357       .  S
C425        C426   1.404       .  A
C425        H430   1.083       .  S
C426        C427   1.404       .  A
C427        C428   1.396       .  A
C427        F431   1.357       .  S
C428        H432   1.083       .  S
C433        C434   1.402       .  A
C433        C438   1.401   1_556  A
C433        H443   1.083       .  S
C434        C439   1.481       .  S
C434        C435   1.403   1_556  A
C435        C436   1.402       .  A
C435        F440   1.357       .  S
C436        C437   1.410       .  A
C436        H441   1.083       .  S
C437        C438   1.412       .  A
C438        F442   1.357       .  S
C439        C444   1.403       .  A
C439        C448   1.404       .  A
C444        C445   1.400       .  A
C444        F449   1.358       .  S
C445        C446   1.410       .  A
C445        H450   1.083       .  S
C446        C447   1.408       .  A
C447        C448   1.402       .  A
C447        F451   1.357       .  S
C448        H452   1.083       .  S
C453        C454   1.397       .  A
C453        C458   1.395       .  A
C453        H463   1.084       .  S
C454        C459   1.472       .  S
C454        C455   1.403       .  A
C455        C456   1.401       .  A
C455        F460   1.357       .  S
C456        C457   1.407       .  A
C456        H461   1.083       .  S
C457        C458   1.414       .  A
C458        F462   1.358       .  S
C459        C464   1.401       .  A
C459        C468   1.400       .  A
C464        C465   1.400       .  A
C464        F469   1.357       .  S
C465        C466   1.410       .  A
C465        H470   1.083       .  S
C466        C467   1.411       .  A
C467        C468   1.397       .  A
C467        F471   1.357       .  S
C468        H472   1.083       .  S
C473        C474   1.399       .  A
C473        C478   1.394       .  A
C473        H483   1.084       .  S
C474        C479   1.470       .  S
C474        C475   1.407       .  A
C475        C476   1.396       .  A
C475        F480   1.358       .  S
C476        C477   1.402       .  A
C476        H481   1.083       .  S
C477        C478   1.409       .  A
C478        F482   1.358       .  S
C479        C484   1.401       .  A
C479        C488   1.405       .  A
C484        C485   1.387       .  A
C484        F489   1.358       .  S
C485        C486   1.406   1_554  A
C485        H490   1.083       .  S
C486        C487   1.408       .  A
C487        C488   1.402   1_556  A
C487        F491   1.357       .  S
C488        H492   1.083       .  S
C493        C494   1.406       .  A
C493        C498   1.400       .  A
C493        H503   1.082       .  S
C494        C499   1.484       .  S
C494        C495   1.408       .  A
C495        C496   1.393       .  A
C495        F500   1.358       .  S
C496        C497   1.402       .  A
C496        H501   1.082       .  S
C497        C498   1.405       .  A
C498        F502   1.357       .  S
C499        C504   1.408       .  A
C499        C508   1.405       .  A
C504        C505   1.400       .  A
C504        F509   1.357       .  S
C505        C506   1.404       .  A
C505        H510   1.083       .  S
C506        C507   1.407       .  A
C507        C508   1.394       .  A
C507        F511   1.358       .  S
C508        H512   1.083       .  S
C513        C514   1.408       .  A
C513        C518   1.403       .  A
C513        H523   1.083       .  S
C514        C519   1.485       .  S
C514        C515   1.405       .  A
C515        C516   1.395       .  A
C515        F520   1.358       .  S
C516        C517   1.403       .  A
C516        H521   1.084       .  S
C517        C518   1.405       .  A
C518        F522   1.358       .  S
C519        C524   1.405       .  A
C519        C528   1.405       .  A
C524        C525   1.400       .  A
C524        F529   1.357       .  S
C525        C526   1.407       .  A
C525        H530   1.083       .  S
C526        C527   1.410       .  A
C527        C528   1.398       .  A
C527        F531   1.358       .  S
C528        H532   1.083       .  S
C533        C534   1.407       .  A
C533        C538   1.404       .  A
C533        H543   1.083       .  S
C534        C539   1.495       .  S
C534        C535   1.408       .  A
C535        C536   1.402       .  A
C535        F540   1.357       .  S
C536        C537   1.408       .  A
C536        H541   1.083       .  S
C537        C538   1.410       .  A
C538        F542   1.357       .  S
C539        C544   1.408       .  A
C539        C548   1.407       .  A
C544        C545   1.402       .  A
C544        F549   1.357       .  S
C545        C546   1.409       .  A
C545        H550   1.083       .  S
C546        C547   1.412       .  A
C547        C548   1.404       .  A
C547        F551   1.357       .  S
C548        H552   1.083       .  S
C553        C554   1.409       .  A
C553        C558   1.408       .  A
C553        H563   1.083   1_655  S
C554        C559   1.489       .  S
C554        C555   1.407       .  A
C555        C556   1.395       .  A
C555        F560   1.358   1_554  S
C556        C557   1.403       .  A
C556        H561   1.084       .  S
C557        C558   1.406       .  A
C558        F562   1.357       .  S
C559        C564   1.408   1_554  A
C559        C568   1.404       .  A
C564        C565   1.403       .  A
C564        F569   1.357       .  S
C565        C566   1.407       .  A
C565        H570   1.083       .  S
C566        C567   1.411       .  A
C567        C568   1.401   1_556  A
C567        F571   1.358   1_556  S
C568        H572   1.083       .  S
C573        C574   1.401       .  A
C573        C578   1.398       .  A
C573        H583   1.084       .  S
C574        C579   1.478       .  S
C574        C575   1.403       .  A
C575        C576   1.402       .  A
C575        F580   1.358       .  S
C576        C577   1.411       .  A
C576        H581   1.083       .  S
C577        C578   1.409       .  A
C578        F582   1.357       .  S
C579        C584   1.405       .  A
C579        C588   1.401       .  A
C584        C585   1.401       .  A
C584        F589   1.357       .  S
C585        C586   1.405       .  A
C585        H590   1.083       .  S
C586        C587   1.409       .  A
C587        C588   1.399       .  A
C587        F591   1.358       .  S
C588        H592   1.083       .  S
C593        C594   1.403       .  A
C593        C598   1.400       .  A
C593        H603   1.084       .  S
C594        C599   1.473       .  S
C594        C595   1.400       .  A
C595        C596   1.396       .  A
C595        F600   1.357       .  S
C596        C597   1.408       .  A
C596        H601   1.083       .  S
C597        C598   1.408       .  A
C598        F602   1.358       .  S
C599        C604   1.403   1_556  A
C599        C608   1.398       .  A
C604        C605   1.403       .  A
C604        F609   1.357       .  S
C605        C606   1.410       .  A
C605        H610   1.083       .  S
C606        C607   1.412       .  A
C607        C608   1.394   1_554  A
C607        F611   1.357       .  S
C608        H612   1.084       .  S
C613        C614   1.401       .  A
C613        C618   1.392       .  A
C613        H623   1.083       .  S
C614        C619   1.475       .  S
C614        C615   1.407       .  A
C615        C616   1.397       .  A
C615        F620   1.357       .  S
C616        C617   1.403       .  A
C616        H621   1.083       .  S
C617        C618   1.409       .  A
C618        F622   1.358       .  S
C619        C624   1.404       .  A
C619        C628   1.405       .  A
C624        C625   1.394       .  A
C624        F629   1.357       .  S
C625        C626   1.405       .  A
C625        H630   1.083       .  S
C626        C627   1.406       .  A
C627        C628   1.395       .  A
C627        F631   1.358       .  S
C628        H632   1.083       .  S
C633        C634   1.406       .  A
C633        C638   1.401       .  A
C633        H643   1.083       .  S
C634        C639   1.486       .  S
C634        C635   1.407       .  A
C635        C636   1.395       .  A
C635        F640   1.358       .  S
C636        C637   1.404       .  A
C636        H641   1.083       .  S
C637        C638   1.409       .  A
C638        F642   1.357       .  S
C639        C644   1.407       .  A
C639        C648   1.407       .  A
C644        C645   1.392       .  A
C644        F649   1.358       .  S
C645        C646   1.406       .  A
C645        H650   1.083       .  S
C646        C647   1.408       .  A
C647        C648   1.402       .  A
C647        F651   1.357       .  S
C648        H652   1.083       .  S
C653        C654   1.402       .  A
C653        C658   1.397       .  A
C653        H663   1.083       .  S
C654        C659   1.479       .  S
C654        C655   1.406       .  A
C655        C656   1.398       .  A
C655        F660   1.358       .  S
C656        C657   1.407       .  A
C656        H661   1.082       .  S
C657        C658   1.411       .  A
C658        F662   1.357       .  S
C659        C664   1.405       .  A
C659        C668   1.403       .  A
C664        C665   1.397       .  A
C664        F669   1.358       .  S
C665        C666   1.407       .  A
C665        H670   1.083       .  S
C666        C667   1.410       .  A
C667        C668   1.398       .  A
C667        F671   1.357       .  S
C668        H672   1.083       .  S
C673        C674   1.409       .  A
C673        C678   1.405       .  A
C673        H683   1.083       .  S
C674        C679   1.489       .  S
C674        C675   1.408       .  A
C675        C676   1.395       .  A
C675        F680   1.358       .  S
C676        C677   1.404       .  A
C676        H681   1.084       .  S
C677        C678   1.404       .  A
C678        F682   1.357       .  S
C679        C684   1.410       .  A
C679        C688   1.405       .  A
C684        C685   1.403       .  A
C684        F689   1.357       .  S
C685        C686   1.403       .  A
C685        H690   1.084       .  S
C686        C687   1.405       .  A
C687        C688   1.399       .  A
C687        F691   1.358       .  S
C688        H692   1.083       .  S
C693        C694   1.406       .  A
C693        C698   1.401       .  A
C693        H703   1.083       .  S
C694        C699   1.492       .  S
C694        C695   1.407       .  A
C695        C696   1.404       .  A
C695        F700   1.357       .  S
C696        C697   1.411       .  A
C696        H701   1.083       .  S
C697        C698   1.409       .  A
C698        F702   1.357       .  S
C699        C704   1.406       .  A
C699        C708   1.406       .  A
C704        C705   1.400       .  A
C704        F709   1.358       .  S
C705        C706   1.408       .  A
C705        H710   1.083       .  S
C706        C707   1.413       .  A
C707        C708   1.406       .  A
C707        F711   1.357       .  S
C708        H712   1.083       .  S
C713        C714   1.399       .  A
C713        C718   1.392       .  A
C713        H723   1.084       .  S
C714        C719   1.473       .  S
C714        C715   1.405       .  A
C715        C716   1.404   1_554  A
C715        F720   1.357       .  S
C716        C717   1.406       .  A
C716        H721   1.083       .  S
C717        C718   1.407   1_556  A
C718        F722   1.358       .  S
C719        C724   1.399       .  A
C719        C728   1.405       .  A
C724        C725   1.396       .  A
C724        F729   1.358       .  S
C725        C726   1.409       .  A
C725        H730   1.083       .  S
C726        C727   1.405       .  A
C727        C728   1.400       .  A
C727        F731   1.357       .  S
C728        H732   1.083       .  S
C733        C734   1.407       .  A
C733        C738   1.401       .  A
C733        H743   1.083       .  S
C734        C739   1.487       .  S
C734        C735   1.409       .  A
C735        C736   1.398       .  A
C735        F740   1.358       .  S
C736        C737   1.401       .  A
C736        H741   1.083       .  S
C737        C738   1.404       .  A
C738        F742   1.358       .  S
C739        C744   1.406       .  A
C739        C748   1.405       .  A
C744        C745   1.400       .  A
C744        F749   1.357       .  S
C745        C746   1.408       .  A
C745        H750   1.083       .  S
C746        C747   1.411       .  A
C747        C748   1.398       .  A
C747        F751   1.358       .  S
C748        H752   1.083       .  S
C753        C754   1.405       .  A
C753        C758   1.399   1_455  A
C753        H763   1.083       .  S
C754        C759   1.490       .  S
C754        C755   1.407       .  A
C755        C756   1.403       .  A
C755        F760   1.357       .  S
C756        C757   1.408   1_455  A
C756        H761   1.083       .  S
C757        C758   1.411       .  A
C758        F762   1.358       .  S
C759        C764   1.409       .  A
C759        C768   1.405       .  A
C764        C765   1.404       .  A
C764        F769   1.357       .  S
C765        C766   1.404       .  A
C765        H770   1.083       .  S
C766        C767   1.406       .  A
C767        C768   1.398       .  A
C767        F771   1.358       .  S
C768        H772   1.083       .  S
C773        C774   1.405       .  A
C773        C778   1.404       .  A
C773        H783   1.083       .  S
C774        C779   1.498       .  S
C774        C775   1.410       .  A
C775        C776   1.405       .  A
C775        F780   1.357       .  S
C776        C777   1.409       .  A
C776        H781   1.083       .  S
C777        C778   1.413       .  A
C778        F782   1.357       .  S
C779        C784   1.410       .  A
C779        C788   1.406       .  A
C784        C785   1.405       .  A
C784        F789   1.357       .  S
C785        C786   1.408       .  A
C785        H790   1.083       .  S
C786        C787   1.411       .  A
C787        C788   1.405       .  A
C787        F791   1.357       .  S
C788        H792   1.083       .  S
C793        C794   1.405       .  A
C793        C798   1.398       .  A
C793        H803   1.083       .  S
C794        C799   1.485       .  S
C794        C795   1.408       .  A
C795        C796   1.400       .  A
C795        F800   1.358   1_565  S
C796        C797   1.406       .  A
C796        H801   1.083       .  S
C797        C798   1.406       .  A
C798        F802   1.358       .  S
C799        C804   1.407       .  A
C799        C808   1.409   1_565  A
C804        C805   1.393       .  A
C804        F809   1.358       .  S
C805        C806   1.403       .  A
C805        H810   1.084       .  S
C806        C807   1.403   1_565  A
C807        C808   1.404       .  A
C807        F811   1.357       .  S
C808        H812   1.083       .  S
C813        C814   1.403       .  A
C813        C818   1.401       .  A
C813        H823   1.083       .  S
C814        C819   1.488       .  S
C814        C815   1.408       .  A
C815        C816   1.399       .  A
C815        F820   1.358       .  S
C816        C817   1.406       .  A
C816        H821   1.083   1_655  S
C817        C818   1.412       .  A
C818        F822   1.357       .  S
C819        C824   1.407       .  A
C819        C828   1.404       .  A
C824        C825   1.401       .  A
C824        F829   1.357       .  S
C825        C826   1.408       .  A
C825        H830   1.083       .  S
C826        C827   1.409       .  A
C827        C828   1.398       .  A
C827        F831   1.358       .  S
C828        H832   1.083       .  S
C833        C834   1.404       .  A
C833        C838   1.399       .  A
C833        H843   1.083       .  S
C834        C839   1.483       .  S
C834        C835   1.407       .  A
C835        C836   1.395       .  A
C835        F840   1.358       .  S
C836        C837   1.404       .  A
C836        H841   1.083       .  S
C837        C838   1.409       .  A
C838        F842   1.358       .  S
C839        C844   1.406       .  A
C839        C848   1.406       .  A
C844        C845   1.393       .  A
C844        F849   1.358       .  S
C845        C846   1.406       .  A
C845        H850   1.083       .  S
C846        C847   1.408       .  A
C847        C848   1.401       .  A
C847        F851   1.357       .  S
C848        H852   1.083       .  S
C853        C854   1.407       .  A
C853        C858   1.406       .  A
C853        H863   1.083       .  S
C854        C859   1.490       .  S
C854        C855   1.406       .  A
C855        C856   1.399       .  A
C855        F860   1.358       .  S
C856        C857   1.408       .  A
C856        H861   1.083       .  S
C857        C858   1.408       .  A
C858        F862   1.357       .  S
C859        C864   1.403       .  A
C859        C868   1.407       .  A
C864        C865   1.401       .  A
C864        F869   1.357       .  S
C865        C866   1.411       .  A
C865        H870   1.083       .  S
C866        C867   1.411       .  A
C867        C868   1.404       .  A
C867        F871   1.357   1_565  S
C868        H872   1.083       .  S
C873        C874   1.408       .  A
C873        C878   1.404       .  A
C873        H883   1.082       .  S
C874        C879   1.492       .  S
C874        C875   1.407       .  A
C875        C876   1.398       .  A
C875        F880   1.358       .  S
C876        C877   1.406       .  A
C876        H881   1.083       .  S
C877        C878   1.407       .  A
C878        F882   1.357       .  S
C879        C884   1.406       .  A
C879        C888   1.407       .  A
C884        C885   1.400       .  A
C884        F889   1.357       .  S
C885        C886   1.408       .  A
C885        H890   1.083       .  S
C886        C887   1.410       .  A
C887        C888   1.402       .  A
C887        F891   1.358       .  S
C888        H892   1.083       .  S
C893        C894   1.410   1_655  A
C893        C898   1.408       .  A
C893        H903   1.082       .  S
C894        C899   1.497   1_554  S
C894        C895   1.408       .  A
C895        C896   1.397       .  A
C895        F900   1.358   1_554  S
C896        C897   1.407       .  A
C896        H901   1.083       .  S
C897        C898   1.410   1_455  A
C898        F902   1.357       .  S
C899        C904   1.410       .  A
C899        C908   1.410   1_455  A
C904        C905   1.401       .  A
C904        F909   1.357   1_556  S
C905        C906   1.403       .  A
C905        H910   1.084       .  S
C906        C907   1.404   1_455  A
C907        C908   1.404       .  A
C907        F911   1.357       .  S
C908        H912   1.083       .  S
C913        C914   1.407       .  A
C913        C918   1.398       .  A
C913        H923   1.083       .  S
C914        C919   1.473       .  S
C914        C915   1.404       .  A
C915        C916   1.390       .  A
C915        F920   1.358       .  S
C916        C917   1.403       .  A
C916        H921   1.083       .  S
C917        C918   1.404       .  A
C918        F922   1.358       .  S
C919        C924   1.407       .  A
C919        C928   1.399       .  A
C924        C925   1.399       .  A
C924        F929   1.357       .  S
C925        C926   1.404       .  A
C925        H930   1.083       .  S
C926        C927   1.411       .  A
C927        C928   1.388       .  A
C927        F931   1.358       .  S
C928        H932   1.084       .  S
C933        C934   1.406       .  A
C933        C938   1.397       .  A
C933        H943   1.083       .  S
C934        C939   1.475       .  S
C934        C935   1.403       .  A
C935        C936   1.391       .  A
C935        F940   1.358       .  S
C936        C937   1.406       .  A
C936        H941   1.083       .  S
C937        C938   1.404       .  A
C938        F942   1.357       .  S
C939        C944   1.404       .  A
C939        C948   1.408       .  A
C944        C945   1.386   1_556  A
C944        F949   1.358       .  S
C945        C946   1.402       .  A
C945        H950   1.084       .  S
C946        C947   1.404       .  A
C947        C948   1.401   1_554  A
C947        F951   1.357       .  S
C948        H952   1.083       .  S
C953        C954   1.404       .  A
C953        C958   1.401       .  A
C953        H963   1.080       .  S
C954        C959   1.488       .  S
C954        C955   1.405       .  A
C955        C956   1.404       .  A
C955        F960   1.357       .  S
C956        C957   1.409       .  A
C956        H961   1.080       .  S
C957        C958   1.413       .  A
C958        F962   1.358   1_455  S
C959        C964   1.404       .  A
C959        C968   1.404       .  A
C964        C965   1.402       .  A
C964        F969   1.357       .  S
C965        C966   1.411       .  A
C965        H970   1.086       .  S
C966        C967   1.411       .  A
C967        C968   1.402       .  A
C967        F971   1.357       .  S
C968        H972   1.087       .  S
C973        C974   1.400       .  A
C973        C978   1.395       .  A
C973        H983   1.083       .  S
C974        C979   1.473       .  S
C974        C975   1.406       .  A
C975        C976   1.397       .  A
C975        F980   1.358       .  S
C976        C977   1.402       .  A
C976        H981   1.083       .  S
C977        C978   1.407       .  A
C978        F982   1.358       .  S
C979        C984   1.403       .  A
C979        C988   1.402       .  A
C984        C985   1.393       .  A
C984        F989   1.358       .  S
C985        C986   1.407       .  A
C985        H990   1.083       .  S
C986        C987   1.411       .  A
C987        C988   1.398       .  A
C987        F991   1.357       .  S
C988        H992   1.083       .  S
C993        C994   1.398       .  A
C993        C998   1.392       .  A
C993       H1003   1.084       .  S
C994        C999   1.473       .  S
C994        C995   1.406       .  A
C995        C996   1.399       .  A
C995       F1000   1.357       .  S
C996        C997   1.405       .  A
C996       H1001   1.083       .  S
C997        C998   1.413       .  A
C998       F1002   1.358       .  S
C999       C1004   1.407   1_554  A
C999       C1008   1.400       .  A
C1004      C1005   1.400       .  A
C1004      F1009   1.357   1_556  S
C1005      C1006   1.403       .  A
C1005      H1010   1.084       .  S
C1006      C1007   1.406       .  A
C1007      C1008   1.391   1_556  A
C1007      F1011   1.358       .  S
C1008      H1012   1.084       .  S
C1013      C1014   1.403       .  A
C1013      C1018   1.402       .  A
C1013      H1023   1.083       .  S
C1014      C1019   1.488       .  S
C1014      C1015   1.409       .  A
C1015      C1016   1.403       .  A
C1015      F1020   1.358       .  S
C1016      C1017   1.405       .  A
C1016      H1021   1.083       .  S
C1017      C1018   1.410       .  A
C1018      F1022   1.357       .  S
C1019      C1024   1.409       .  A
C1019      C1028   1.402       .  A
C1024      C1025   1.406       .  A
C1024      F1029   1.357       .  S
C1025      C1026   1.407       .  A
C1025      H1030   1.083       .  S
C1026      C1027   1.410       .  A
C1027      C1028   1.398       .  A
C1027      F1031   1.358       .  S
C1028      H1032   1.083       .  S
C1033      C1034   1.400       .  A
C1033      C1038   1.398       .  A
C1033      H1043   1.083       .  S
C1034      C1039   1.483       .  S
C1034      C1035   1.408       .  A
C1035      C1036   1.399       .  A
C1035      F1040   1.358       .  S
C1036      C1037   1.405       .  A
C1036      H1041   1.083       .  S
C1037      C1038   1.416       .  A
C1038      F1042   1.358       .  S
C1039      C1044   1.404       .  A
C1039      C1048   1.405       .  A
C1044      C1045   1.393       .  A
C1044      F1049   1.358       .  S
C1045      C1046   1.405       .  A
C1045      H1050   1.083       .  S
C1046      C1047   1.410       .  A
C1047      C1048   1.404       .  A
C1047      F1051   1.357       .  S
C1048      H1052   1.083       .  S
C1053      C1054   1.398       .  A
C1053      C1058   1.396       .  A
C1053      H1063   1.083       .  S
C1054      C1059   1.469       .  S
C1054      C1055   1.403       .  A
C1055      C1056   1.397       .  A
C1055      F1060   1.358       .  S
C1056      C1057   1.406       .  A
C1056      H1061   1.083       .  S
C1057      C1058   1.413       .  A
C1058      F1062   1.357       .  S
C1059      C1064   1.402       .  A
C1059      C1068   1.400       .  A
C1064      C1065   1.397       .  A
C1064      F1069   1.357       .  S
C1065      C1066   1.407       .  A
C1065      H1070   1.083       .  S
C1066      C1067   1.409       .  A
C1067      C1068   1.394       .  A
C1067      F1071   1.358       .  S
C1068      H1072   1.083       .  S
C1073      C1074   1.406       .  A
C1073      C1078   1.401       .  A
C1073      H1083   1.083       .  S
C1074      C1079   1.493       .  S
C1074      C1075   1.411       .  A
C1075      C1076   1.404       .  A
C1075      F1080   1.357       .  S
C1076      C1077   1.403       .  A
C1076      H1081   1.083       .  S
C1077      C1078   1.405       .  A
C1078      F1082   1.358       .  S
C1079      C1084   1.408       .  A
C1079      C1088   1.410       .  A
C1084      C1085   1.397       .  A
C1084      F1089   1.358       .  S
C1085      C1086   1.403       .  A
C1085      H1090   1.084       .  S
C1086      C1087   1.406       .  A
C1087      C1088   1.408       .  A
C1087      F1091   1.357       .  S
C1088      H1092   1.083       .  S
C1093      C1094   1.406       .  A
C1093      C1098   1.403       .  A
C1093      H1103   1.083       .  S
C1094      C1099   1.491       .  S
C1094      C1095   1.405       .  A
C1095      C1096   1.401       .  A
C1095      F1100   1.358       .  S
C1096      C1097   1.412       .  A
C1096      H1101   1.083       .  S
C1097      C1098   1.410       .  A
C1098      F1102   1.357       .  S
C1099      C1104   1.408       .  A
C1099      C1108   1.405       .  A
C1104      C1105   1.402       .  A
C1104      F1109   1.357       .  S
C1105      C1106   1.406       .  A
C1105      H1110   1.083       .  S
C1106      C1107   1.410       .  A
C1107      C1108   1.402       .  A
C1107      F1111   1.358       .  S
C1108      H1112   1.083       .  S
C1113      C1114   1.402       .  A
C1113      C1118   1.402       .  A
C1113      H1123   1.084       .  S
C1114      C1119   1.471       .  S
C1114      C1115   1.399       .  A
C1115      C1116   1.394       .  A
C1115      F1120   1.358       .  S
C1116      C1117   1.408       .  A
C1116      H1121   1.083       .  S
C1117      C1118   1.410       .  A
C1118      F1122   1.357       .  S
C1119      C1124   1.400       .  A
C1119      C1128   1.401   1_556  A
C1124      C1125   1.394   1_556  A
C1124      F1129   1.358       .  S
C1125      C1126   1.408       .  A
C1125      H1130   1.084       .  S
C1126      C1127   1.412       .  A
C1127      C1128   1.401       .  A
C1127      F1131   1.357       .  S
C1128      H1132   1.084       .  S
C1133      C1134   1.405       .  A
C1133      C1138   1.406       .  A
C1133      H1143   1.083       .  S
C1134      C1139   1.470       .  S
C1134      C1135   1.397       .  A
C1135      C1136   1.389       .  A
C1135      F1140   1.358       .  S
C1136      C1137   1.409       .  A
C1136      H1141   1.083       .  S
C1137      C1138   1.411       .  A
C1138      F1142   1.357       .  S
C1139      C1144   1.402       .  A
C1139      C1148   1.399       .  A
C1144      C1145   1.400       .  A
C1144      F1149   1.357       .  S
C1145      C1146   1.408       .  A
C1145      H1150   1.083       .  S
C1146      C1147   1.411       .  A
C1147      C1148   1.395       .  A
C1147      F1151   1.358       .  S
C1148      H1152   1.083       .  S
C1153      C1154   1.402       .  A
C1153      C1158   1.398       .  A
C1153      H1163   1.083       .  S
C1154      C1159   1.476       .  S
C1154      C1155   1.402       .  A
C1155      C1156   1.398       .  A
C1155      F1160   1.357       .  S
C1156      C1157   1.409       .  A
C1156      H1161   1.082       .  S
C1157      C1158   1.411       .  A
C1158      F1162   1.358       .  S
C1159      C1164   1.401       .  A
C1159      C1168   1.403       .  A
C1164      C1165   1.394       .  A
C1164      F1169   1.358       .  S
C1165      C1166   1.409       .  A
C1165      H1170   1.083       .  S
C1166      C1167   1.410       .  A
C1167      C1168   1.402       .  A
C1167      F1171   1.357       .  S
C1168      H1172   1.083       .  S
C1173      C1174   1.403       .  A
C1173      C1178   1.397       .  A
C1173      H1183   1.083       .  S
C1174      C1179   1.473       .  S
C1174      C1175   1.402       .  A
C1175      C1176   1.395       .  A
C1175      F1180   1.358       .  S
C1176      C1177   1.408       .  A
C1176      H1181   1.083       .  S
C1177      C1178   1.409       .  A
C1178      F1182   1.357       .  S
C1179      C1184   1.405       .  A
C1179      C1188   1.399       .  A
C1184      C1185   1.399       .  A
C1184      F1189   1.358       .  S
C1185      C1186   1.407       .  A
C1185      H1190   1.083       .  S
C1186      C1187   1.411       .  A
C1187      C1188   1.393       .  A
C1187      F1191   1.357       .  S
C1188      H1192   1.083       .  S
C1193      C1194   1.406       .  A
C1193      C1198   1.401   1_565  A
C1193      H1203   1.083       .  S
C1194      C1199   1.487       .  S
C1194      C1195   1.405       .  A
C1195      C1196   1.400       .  A
C1195      F1200   1.357       .  S
C1196      C1197   1.409   1_565  A
C1196      H1201   1.083       .  S
C1197      C1198   1.410       .  A
C1198      F1202   1.357       .  S
C1199      C1204   1.408       .  A
C1199      C1208   1.404       .  A
C1204      C1205   1.399       .  A
C1204      F1209   1.358       .  S
C1205      C1206   1.405       .  A
C1205      H1210   1.083       .  S
C1206      C1207   1.411       .  A
C1207      C1208   1.402       .  A
C1207      F1211   1.358       .  S
C1208      H1212   1.083       .  S
C1213      C1214   1.398       .  A
C1213      C1218   1.395       .  A
C1213      H1223   1.084       .  S
C1214      C1219   1.478       .  S
C1214      C1215   1.405       .  A
C1215      C1216   1.406       .  A
C1215      F1220   1.357       .  S
C1216      C1217   1.409       .  A
C1216      H1221   1.083       .  S
C1217      C1218   1.413       .  A
C1218      F1222   1.357       .  S
C1219      C1224   1.402       .  A
C1219      C1228   1.403       .  A
C1224      C1225   1.400       .  A
C1224      F1229   1.357       .  S
C1225      C1226   1.410       .  A
C1225      H1230   1.083       .  S
C1226      C1227   1.411       .  A
C1227      C1228   1.401       .  A
C1227      F1231   1.357       .  S
C1228      H1232   1.084       .  S
C1233      C1234   1.403   1_554  A
C1233      C1238   1.397   1_554  A
C1233      H1243   1.083       .  S
C1234      C1239   1.492   1_556  S
C1234      C1235   1.411       .  A
C1235      C1236   1.408       .  A
C1235      F1240   1.357       .  S
C1236      C1237   1.404       .  A
C1236      H1241   1.083       .  S
C1237      C1238   1.407       .  A
C1238      F1242   1.355       .  S
C1239      C1244   1.411       .  A
C1239      C1248   1.406       .  A
C1244      C1245   1.405       .  A
C1244      F1249   1.358       .  S
C1245      C1246   1.404       .  A
C1245      H1250   1.083       .  S
C1246      C1247   1.404       .  A
C1247      C1248   1.400       .  A
C1247      F1251   1.358       .  S
C1248      H1252   1.083   1_554  S
C1253      C1254   1.402       .  A
C1253      C1258   1.398       .  A
C1253      H1263   1.083       .  S
C1254      C1259   1.480       .  S
C1254      C1255   1.404       .  A
C1255      C1256   1.401       .  A
C1255      F1260   1.357       .  S
C1256      C1257   1.409       .  A
C1256      H1261   1.082       .  S
C1257      C1258   1.411       .  A
C1258      F1262   1.358       .  S
C1259      C1264   1.407       .  A
C1259      C1268   1.399       .  A
C1264      C1265   1.405       .  A
C1264      F1269   1.357       .  S
C1265      C1266   1.408       .  A
C1265      H1270   1.083       .  S
C1266      C1267   1.413       .  A
C1267      C1268   1.393       .  A
C1267      F1271   1.358       .  S
C1268      H1272   1.084       .  S
C1273      C1274   1.398       .  A
C1273      C1278   1.393       .  A
C1273      H1283   1.084       .  S
C1274      C1279   1.482       .  S
C1274      C1275   1.407       .  A
C1275      C1276   1.407       .  A
C1275      F1280   1.357       .  S
C1276      C1277   1.408       .  A
C1276      H1281   1.083       .  S
C1277      C1278   1.416       .  A
C1278      F1282   1.358       .  S
C1279      C1284   1.405       .  A
C1279      C1288   1.403       .  A
C1284      C1285   1.396       .  A
C1284      F1289   1.358       .  S
C1285      C1286   1.407       .  A
C1285      H1290   1.083       .  S
C1286      C1287   1.413       .  A
C1287      C1288   1.404       .  A
C1287      F1291   1.357       .  S
C1288      H1292   1.083       .  S
C1293      C1294   1.400       .  A
C1293      C1298   1.394       .  A
C1293      H1303   1.083       .  S
C1294      C1299   1.466       .  S
C1294      C1295   1.405       .  A
C1295      C1296   1.394       .  A
C1295      F1300   1.358       .  S
C1296      C1297   1.401       .  A
C1296      H1301   1.084       .  S
C1297      C1298   1.407       .  A
C1298      F1302   1.358       .  S
C1299      C1304   1.400   1_554  A
C1299      C1308   1.399       .  A
C1304      C1305   1.396       .  A
C1304      F1309   1.357       .  S
C1305      C1306   1.409       .  A
C1305      H1310   1.083       .  S
C1306      C1307   1.410       .  A
C1307      C1308   1.392   1_556  A
C1307      F1311   1.355       .  S
C1308      H1312   1.084       .  S
