geometry optimzed in LAMMPS
_audit_creation_date              2020-12-01 
_audit_creation_method            'lammps2cif' 
_symmetry_space_group_name_H-M    'P1' 
_symmetry_Int_Tables_number       1 
_symmetry_cell_setting            triclinic 
loop_ 
_symmetry_equiv_pos_as_xyz 
  x,y,z 
_cell_length_a                    63.61325194 
_cell_length_b                    63.55724485064932 
_cell_length_c                    24.96434341610366 
_cell_angle_alpha                 89.84156219894174 
_cell_angle_beta                  90.05024806269975 
_cell_angle_gamma                 119.94161713415356 
loop_ 
_atom_site_label 
_atom_site_type_symbol 
_atom_site_fract_x 
_atom_site_fract_y 
_atom_site_fract_z 
_atom_site_charge 
O1          O  0.56607535  0.48026888  0.20806781    -0.85600
O2          O  0.56791999  0.51339081  0.13256436    -0.82700
C3          C  0.54848795  0.51418629  0.13893244     0.97800
O4          O  0.54469048  0.52162667  0.18251999    -0.82700
O5          O  0.54846043  0.53467525  0.28918983    -0.85400
C6          C  0.54019280  0.51530132  0.31689500     1.02300
O7          O  0.55028851  0.50267586  0.31524730    -0.78100
O8          O  0.58027839  0.48554193  0.28957414    -0.78300
C9          C  0.56611112  0.47169435  0.25375098     1.02300
O10         O  0.61787389  0.51167027  0.23026047    -0.85600
O11         O  0.61740016  0.54590980  0.16579799    -0.82700
C12         C  0.61356468  0.56284844  0.15274396     0.97800
O13         O  0.59311988  0.56115651  0.16127729    -0.82700
O14         O  0.59808869  0.57205922  0.26718323    -0.85300
C15         C  0.59797304  0.57036990  0.31723919     1.02300
O16         O  0.59029366  0.54979725  0.33904323    -0.78200
O17         O  0.62064535  0.53372280  0.30026330    -0.78300
C18         C  0.62975895  0.52445333  0.27031059     1.02300
Cr19       Cr  0.59163303  0.51346131  0.18737728     1.93700
Cr20       Cr  0.57175306  0.54588412  0.22588568     1.93200
Cr21       Cr  0.58536434  0.51855774  0.30640962     1.39100
O22         O  0.58287726  0.52601186  0.23966765    -1.23400
O23         O  0.36763128  0.48666607  0.73215332    -0.85600
O24         O  0.36689320  0.45168069  0.79669109    -0.82700
C25         C  0.37033734  0.43449246  0.80988878     0.97800
O26         O  0.39094280  0.43625566  0.80359660    -0.82700
O27         O  0.38764584  0.42578273  0.69738646    -0.85400
C28         C  0.38813907  0.42779961  0.64731131     1.02300
O29         O  0.39637189  0.44860598  0.62616698    -0.78100
O30         O  0.36604086  0.46504675  0.66238751    -0.78300
C31         C  0.35641360  0.47417748  0.69115742     1.02300
O32         O  0.41913013  0.51792565  0.75891818    -0.85600
O33         O  0.41587621  0.48380256  0.83426404    -0.82700
C34         C  0.43527051  0.48279239  0.82943095     0.97800
O35         O  0.43970911  0.47572944  0.78600105    -0.82700
O36         O  0.43746195  0.46296217  0.67879210    -0.85300
C37         C  0.44608783  0.48235677  0.65110166     1.02300
O38         O  0.43648937  0.49542648  0.65319155    -0.78200
O39         O  0.40654000  0.51301009  0.67600528    -0.78300
C40         C  0.41952004  0.52684087  0.71335238     1.02300
Cr41       Cr  0.39315021  0.48433868  0.77734386     1.93700
Cr42       Cr  0.41333865  0.45176457  0.74063931     1.93200
Cr43       Cr  0.40133979  0.47990237  0.65909732     1.39100
O44         O  0.40265362  0.47196806  0.72592537    -1.23400
O45         O  0.55878012  0.75721910  0.53482038    -0.85600
O46         O  0.58893924  0.75578459  0.45496564    -0.82700
C47         C  0.60882117  0.77582430  0.45913057     0.97800
O48         O  0.62080570  0.78054334  0.50185345    -0.82700
O49         O  0.63340286  0.77885114  0.60634160    -0.85400
C50         C  0.62251739  0.78714035  0.63447246     1.02300
O51         O  0.59978515  0.77609473  0.63657940    -0.78100
O52         O  0.55238129  0.74413215  0.61743885    -0.78300
C53         C  0.55125169  0.75755174  0.58148189     1.02300
O54         O  0.54088625  0.70584529  0.56046250    -0.85600
O55         O  0.57458785  0.70707620  0.49140596    -0.82700
C56         C  0.59529546  0.71141657  0.47656816     0.97800
O57         O  0.61366536  0.73240976  0.48216405    -0.82700
O58         O  0.62313150  0.72959890  0.58755234    -0.85300
C59         C  0.62207604  0.72976523  0.63777366     1.02300
O60         O  0.60942641  0.73747860  0.66046112    -0.78200
O61         O  0.56260594  0.70528014  0.62819750    -0.78300
C62         C  0.54340852  0.69498792  0.60095964     1.02300
Cr63       Cr  0.56717113  0.73225687  0.51340991     1.93700
Cr64       Cr  0.62057661  0.75457491  0.54550702     1.93200
Cr65       Cr  0.58161180  0.74075377  0.63091460     1.39100
O66         O  0.58984482  0.74245702  0.56307338    -1.23400
O67         O  0.76951389  0.95572250  0.05431063    -0.85600
O68         O  0.73473198  0.95549706  0.11938496    -0.82700
C69         C  0.71401223  0.95167763  0.13298334     0.97800
O70         O  0.69542617  0.93094838  0.12615556    -0.82700
O71         O  0.68884826  0.93595144  0.02038724    -0.85400
C72         C  0.69043736  0.93612103  0.97025606     1.02300
O73         O  0.70321351  0.92841754  0.94804709    -0.78100
O74         O  0.75012197  0.95809156  0.98399507    -0.78300
C75         C  0.76869172  0.96735408  0.01335185     1.02300
O76         O  0.74924030  0.90377031  0.07820230    -0.85600
O77         O  0.71784593  0.90605526  0.15435410    -0.82700
C78         C  0.69753645  0.88657187  0.14875824     0.97800
O79         O  0.68645922  0.88237687  0.10474210    -0.82700
O80         O  0.67608754  0.88664153  0.99781211    -0.85300
C81         C  0.68689352  0.87859164  0.96876748     1.02300
O82         O  0.70943060  0.88766081  0.97234394    -0.78200
O83         O  0.75698813  0.91693900  0.99557990    -0.78300
C84         C  0.75759512  0.90348697  0.03234167     1.02300
Cr85       Cr  0.74146845  0.92955030  0.09840761     1.93700
Cr86       Cr  0.68891806  0.90957557  0.06146563     1.93200
Cr87       Cr  0.72931124  0.92274171  0.97972160     1.39100
O88         O  0.71986833  0.92065797  0.04668170    -1.23400
O89         O  0.90017164  0.42349522  0.19784246    -0.85600
O90         O  0.93254519  0.42172484  0.12581547    -0.82700
C91         C  0.95185163  0.44209034  0.13175251     0.97800
O92         O  0.96283588  0.44709328  0.17598154    -0.82700
O93         O  0.97270336  0.44497554  0.28355622    -0.85400
C94         C  0.96128267  0.45302490  0.31042171     1.02300
O95         O  0.93860533  0.44289002  0.30726111    -0.78100
O96         O  0.89156856  0.41128756  0.28100166    -0.78300
C97         C  0.89138496  0.42423655  0.24267969     1.02300
O98         O  0.88153742  0.37222251  0.22587606    -0.85600
O99         O  0.91753293  0.37325079  0.16521700    -0.82700
C100        C  0.93868006  0.37797277  0.15321256     0.97800
O101        O  0.95656830  0.39919240  0.15936163    -0.82700
O102        O  0.96256099  0.39604779  0.26658694    -0.85300
C103        C  0.95981770  0.39595064  0.31645628     1.02300
O104        O  0.94653189  0.40359066  0.33626198    -0.78200
O105        O  0.90046195  0.37190603  0.29916450    -0.78300
C106        C  0.88257037  0.36146484  0.26809357     1.02300
Cr107      Cr  0.90922758  0.39843500  0.18196150     1.93700
Cr108      Cr  0.96147051  0.42112461  0.22203311     1.93200
Cr109      Cr  0.91998960  0.40745387  0.30123270     1.39100
O110        O  0.93026928  0.40894459  0.23502125    -1.23400
O111        O  0.10661707  0.62304871  0.72430752    -0.85600
O112        O  0.07306087  0.62442660  0.78917936    -0.82700
C113        C  0.05258008  0.62101013  0.80320623     0.97800
O114        O  0.03377027  0.60033292  0.79766780    -0.82700
O115        O  0.02605556  0.60332726  0.69114833    -0.85400
C116        C  0.02699928  0.60219626  0.64103956     1.02300
O117        O  0.03943790  0.59383171  0.61994359    -0.78100
O118        O  0.08679723  0.62409331  0.65314400    -0.78300
C119        C  0.10536740  0.63392537  0.68249093     1.02300
O120        O  0.08653988  0.57165181  0.75291958    -0.85600
O121        O  0.05609154  0.57536568  0.82817511    -0.82700
C122        C  0.03596390  0.55566397  0.82335856     0.97800
O123        O  0.02422212  0.55125916  0.78029086    -0.82700
O124        O  0.01281681  0.55340687  0.67421308    -0.85300
C125        C  0.02305294  0.54421385  0.64690312     1.02300
O126        O  0.04567828  0.55345006  0.64834885    -0.78200
O127        O  0.09349332  0.58336305  0.66930562    -0.78300
C128        C  0.09443618  0.57058627  0.70715256     1.02300
Cr129      Cr  0.07914574  0.59786503  0.77048191     1.93700
Cr130      Cr  0.02639801  0.57771437  0.73505167     1.93200
Cr131      Cr  0.06577926  0.58874361  0.65236433     1.39100
O132        O  0.05709563  0.58819306  0.71942529    -1.23400
O133        O  0.84333637  0.75772946  0.85742329    -0.85600
O134        O  0.80979140  0.72648915  0.78161560    -0.82700
C135        C  0.80925268  0.70627228  0.78705893     0.97800
O136        O  0.80193446  0.69473236  0.83054600    -0.82700
O137        O  0.78872038  0.68429805  0.93804733    -0.85400
C138        C  0.80777108  0.69502700  0.96669575     1.02300
O139        O  0.82084147  0.71773759  0.96455836    -0.78100
O140        O  0.83791565  0.76538010  0.93982354    -0.78300
C141        C  0.85190820  0.76587978  0.90333230     1.02300
O142        O  0.81124184  0.77760309  0.88262206    -0.85600
O143        O  0.77704139  0.74298045  0.81772464    -0.82700
C144        C  0.75993925  0.72230349  0.80486143     0.97800
O145        O  0.76187667  0.70354452  0.81182043    -0.82700
O146        O  0.75137897  0.69658218  0.91835522    -0.85300
C147        C  0.75346048  0.69840907  0.96840241     1.02300
O148        O  0.77413806  0.71113668  0.98941076    -0.78200
O149        O  0.78985256  0.75752362  0.95272552    -0.78300
C150        C  0.79859326  0.77620853  0.92359356     1.02300
Cr151      Cr  0.80971624  0.74978349  0.83806390     1.93700
Cr152      Cr  0.77756814  0.69701076  0.87542413     1.93200
Cr153      Cr  0.80512329  0.73735049  0.95677217     1.39100
O154        O  0.79744397  0.72795922  0.88986665    -1.23400
O155        O  0.83759142  0.54956610  0.38674261    -0.85600
O156        O  0.87144592  0.58426492  0.45135797    -0.82700
C157        C  0.88819166  0.60500749  0.46465360     0.97800
O158        O  0.88609817  0.62364651  0.45673383    -0.82700
O159        O  0.89639167  0.63038194  0.35019457    -0.85400
C160        C  0.89445234  0.62864550  0.30015017     1.02300
O161        O  0.87380563  0.61581648  0.27898039    -0.78100
O162        O  0.85920088  0.56994119  0.31713279    -0.78300
C163        C  0.85097020  0.55150998  0.34689491     1.02300
O164        O  0.80518381  0.56861574  0.41175826    -0.85600
O165        O  0.83832970  0.60031038  0.48714221    -0.82700
C166        C  0.83851032  0.62033759  0.48136648     0.97800
O167        O  0.84549715  0.63168829  0.43761363    -0.82700
O168        O  0.85823627  0.64174615  0.32998844    -0.85300
C169        C  0.83910800  0.63063211  0.30155381     1.02300
O170        O  0.82646505  0.60790643  0.30377664    -0.78200
O171        O  0.81039517  0.56066134  0.32934165    -0.78300
C172        C  0.79648069  0.56003371  0.36624493     1.02300
Cr173      Cr  0.83872993  0.57708530  0.43100958     1.93700
Cr174      Cr  0.87004229  0.62971650  0.39289797     1.93200
Cr175      Cr  0.84301149  0.58914273  0.31206047     1.39100
O176        O  0.85056057  0.59874871  0.37889541    -1.23400
O177        O  0.70026258  0.15359242  0.39165424    -0.85600
O178        O  0.69935534  0.11919332  0.45853192    -0.82700
C179        C  0.70226972  0.10167647  0.47192205     0.97800
O180        O  0.72254990  0.10281246  0.46510894    -0.82700
O181        O  0.71872316  0.09175931  0.35843885    -0.85400
C182        C  0.71943341  0.09389646  0.30830067     1.02300
O183        O  0.72839081  0.11476128  0.28726825    -0.78100
O184        O  0.69861641  0.13197287  0.32172554    -0.78300
C185        C  0.68896017  0.14101978  0.35069511     1.02300
O186        O  0.75231859  0.18490235  0.41725779    -0.85600
O187        O  0.74902742  0.15133400  0.49410420    -0.82700
C188        C  0.76815993  0.14977697  0.48931547     0.97800
O189        O  0.77172340  0.14136597  0.44682197    -0.82700
O190        O  0.76897063  0.12811939  0.34057968    -0.85300
C191        C  0.77842560  0.14765744  0.31336959     1.02300
O192        O  0.76911947  0.16103772  0.31357070    -0.78200
O193        O  0.73961028  0.17947481  0.33464653    -0.78300
C194        C  0.75335920  0.19339668  0.37085137     1.02300
Cr195      Cr  0.72595154  0.15153247  0.43723754     1.93700
Cr196      Cr  0.74484059  0.11761455  0.40185006     1.93200
Cr197      Cr  0.73391329  0.14621040  0.31912087     1.39100
O198        O  0.73489424  0.13838682  0.38636054    -1.23400
O199        O  0.89875909  0.14495039  0.86933291    -0.85600
O200        O  0.90091649  0.17898490  0.79485124    -0.82700
C201        C  0.88153971  0.18008227  0.79996146     0.97800
O202        O  0.87722059  0.18707962  0.84370455    -0.82700
O203        O  0.88021986  0.19962275  0.95167892    -0.85400
C204        C  0.87166039  0.18019952  0.97921206     1.02300
O205        O  0.88098209  0.16690030  0.97614298    -0.78100
O206        O  0.91112448  0.14946278  0.95232383    -0.78300
C207        C  0.89816645  0.13579545  0.91472999     1.02300
O208        O  0.95053700  0.17717637  0.89532503    -0.85600
O209        O  0.95005038  0.21153396  0.83141589    -0.82700
C210        C  0.94650654  0.22875761  0.81926939     0.97800
O211        O  0.92580399  0.22669445  0.82572796    -0.82700
O212        O  0.92989296  0.23668838  0.93209424    -0.85300
C213        C  0.93016345  0.23462711  0.98208742     1.02300
O214        O  0.92134487  0.21374794  0.00312675    -0.78200
O215        O  0.95145433  0.19786417  0.96619512    -0.78300
C216        C  0.96176896  0.18996729  0.93607143     1.02300
Cr217      Cr  0.92426554  0.17874470  0.85092907     1.93700
Cr218      Cr  0.90385993  0.21090328  0.88912360     1.93200
Cr219      Cr  0.91616605  0.18254555  0.96967303     1.39100
O220        O  0.91464852  0.19068620  0.90296119    -1.23400
O221        O  0.17954286  0.42410235  0.54163635    -0.85600
O222        O  0.14545969  0.39210783  0.46793250    -0.82700
C223        C  0.14396794  0.37146529  0.47389028     0.97800
O224        O  0.13642217  0.36018610  0.51755079    -0.82700
O225        O  0.12451956  0.35157328  0.62493048    -0.85400
C226        C  0.14424777  0.36228275  0.65120962     1.02300
O227        O  0.15766519  0.38487388  0.64755604    -0.78100
O228        O  0.17501216  0.43258742  0.62396223    -0.78300
C229        C  0.18866437  0.43314995  0.58663394     1.02300
O230        O  0.14772089  0.44409671  0.56661167    -0.85600
O231        O  0.11326779  0.40955346  0.50275205    -0.82700
C232        C  0.09584975  0.38891017  0.49096889     0.97800
O233        O  0.09732121  0.37000373  0.49911876    -0.82700
O234        O  0.08780528  0.36500979  0.60621219    -0.85300
C235        C  0.09034623  0.36701680  0.65614578     1.02300
O236        O  0.11134529  0.37886749  0.67623104    -0.78200
O237        O  0.12727898  0.42498960  0.63873800    -0.78300
C238        C  0.13568085  0.44319996  0.60829210     1.02300
Cr239      Cr  0.14587416  0.41609498  0.52289358     1.93700
Cr240      Cr  0.11309616  0.36389549  0.56268604     1.93200
Cr241      Cr  0.14220710  0.40465161  0.64186906     1.39100
O242        O  0.13370959  0.39483717  0.57546922    -1.23400
O243        O  0.16979860  0.21702524  0.06263827    -0.85600
O244        O  0.20467837  0.25109715  0.12889973    -0.82700
C245        C  0.22123658  0.27187872  0.14316432     0.97800
O246        O  0.21858270  0.29024278  0.13775288    -0.82700
O247        O  0.22918974  0.29848232  0.03135154    -0.85400
C248        C  0.22712312  0.29720240  0.98123282     1.02300
O249        O  0.20639144  0.28483855  0.96003495    -0.78100
O250        O  0.19093578  0.23785498  0.99283099    -0.78300
C251        C  0.18176784  0.21866288  0.02031079     1.02300
O252        O  0.13774528  0.23623993  0.09163831    -0.85600
O253        O  0.17131329  0.26650695  0.16844314    -0.82700
C254        C  0.17140683  0.28654049  0.16402345     0.97800
O255        O  0.17823655  0.29825503  0.12074918    -0.82700
O256        O  0.19139376  0.31028632  0.01505902    -0.85300
C257        C  0.17191578  0.29967417  0.98803291     1.02300
O258        O  0.15925594  0.27696764  0.98862949    -0.78200
O259        O  0.14290327  0.22938505  0.00846023    -0.78300
C260        C  0.12905341  0.22872767  0.04542785     1.02300
Cr261      Cr  0.17152222  0.24405880  0.10991138     1.93700
Cr262      Cr  0.20288430  0.29714836  0.07535348     1.93200
Cr263      Cr  0.17550658  0.25785752  0.99215450     1.39100
O264        O  0.18344905  0.26638609  0.05931649    -1.23400
O265        O  0.22896460  0.81164356  0.52998808    -0.85600
O266        O  0.23164945  0.84525821  0.45351397    -0.82700
C267        C  0.21234310  0.84641037  0.45887962     0.97800
O268        O  0.20850765  0.85419405  0.50194813    -0.82700
O269        O  0.21156584  0.86767064  0.60814176    -0.85400
C270        C  0.20270062  0.84829425  0.63589657     1.02300
O271        O  0.21230511  0.83520078  0.63489099    -0.78100
O272        O  0.24213146  0.81739036  0.61238598    -0.78300
C273        C  0.22863755  0.80322800  0.57615712     1.02300
O274        O  0.28078636  0.84327932  0.55440966    -0.85600
O275        O  0.28109918  0.87761285  0.48843117    -0.82700
C276        C  0.27784339  0.89492996  0.47519447     0.97800
O277        O  0.25738722  0.89342257  0.48220255    -0.82700
O278        O  0.26144234  0.90454104  0.58843105    -0.85300
C279        C  0.26117380  0.90266561  0.63855408     1.02300
O280        O  0.25276516  0.88193204  0.66002335    -0.78200
O281        O  0.28273826  0.86508937  0.62426917    -0.78300
C282        C  0.29215129  0.85581090  0.59527168     1.02300
Cr283      Cr  0.25488363  0.84515330  0.50974250     1.93700
Cr284      Cr  0.23537117  0.87838299  0.54600468     1.93200
Cr285      Cr  0.24746791  0.85050501  0.62812108     1.39100
O286        O  0.24590779  0.85807048  0.56104011    -1.23400
O287        O  0.03074482  0.82008376  0.05271944    -0.85600
O288        O  0.03134806  0.78612928  0.11820682    -0.82700
C289        C  0.03541920  0.76939224  0.13176570     0.97800
O290        O  0.05624317  0.77172944  0.12507420    -0.82700
O291        O  0.05265047  0.76107570  0.01877158    -0.85400
C292        C  0.05327181  0.76298443  0.96865216     1.02300
O293        O  0.06112371  0.78364408  0.94711519    -0.78100
O294        O  0.02991753  0.79897785  0.98251031    -0.78300
C295        C  0.01975603  0.80740001  0.01170506     1.02300
O296        O  0.08224363  0.85261061  0.07873050    -0.85600
O297        O  0.08030011  0.81931492  0.15458653    -0.82700
C298        C  0.10003287  0.81894514  0.14930966     0.97800
O299        O  0.10451346  0.81201182  0.10579013    -0.82700
O300        O  0.10204955  0.79877897  0.99930901    -0.85300
C301        C  0.11035983  0.81807281  0.97140611     1.02300
O302        O  0.10052633  0.83092803  0.97357655    -0.78200
O303        O  0.06954591  0.84737831  0.99597192    -0.78300
C304        C  0.08275467  0.86131355  0.03286087     1.02300
Cr305      Cr  0.05692377  0.81893774  0.09791131     1.93700
Cr306      Cr  0.07819776  0.78740047  0.06144968     1.93200
Cr307      Cr  0.06527435  0.81464839  0.97946772     1.39100
O308        O  0.06677943  0.80693170  0.04649686    -1.23400
O309        O  0.51219070  0.09346487  0.19943325    -0.85600
O310        O  0.47835437  0.06351788  0.12304880    -0.82700
C311        C  0.47779542  0.04333310  0.12811362     0.97800
O312        O  0.47009583  0.03141178  0.17102875    -0.82700
O313        O  0.45577064  0.01987893  0.27729984    -0.85400
C314        C  0.47496822  0.03008095  0.30536970     1.02300
O315        O  0.48851770  0.05266699  0.30335863    -0.78100
O316        O  0.50718027  0.10056711  0.28266130    -0.78300
C317        C  0.52100208  0.10133404  0.24538156     1.02300
O318        O  0.48132292  0.11407506  0.22565359    -0.85600
O319        O  0.44632539  0.08066912  0.15990102    -0.82700
C320        C  0.42922337  0.06019692  0.14569844     0.97800
O321        O  0.43092497  0.04128397  0.15185968    -0.82700
O322        O  0.41945275  0.03343857  0.25819259    -0.85300
C323        C  0.42131976  0.03467047  0.30836619     1.02300
O324        O  0.44201562  0.04698341  0.32990592    -0.78200
O325        O  0.45983813  0.09446703  0.29630822    -0.78300
C326        C  0.46927319  0.11315742  0.26713648     1.02300
Cr327      Cr  0.47881276  0.08649388  0.18018049     1.93700
Cr328      Cr  0.44564322  0.03369497  0.21539494     1.93200
Cr329      Cr  0.47373540  0.07306760  0.29833112     1.39100
O330        O  0.46591830  0.06440562  0.23116908    -1.23400
O331        O  0.49983073  0.88485078  0.72759446    -0.85600
O332        O  0.53376140  0.91936207  0.79181644    -0.82700
C333        C  0.55093285  0.94004886  0.80411854     0.97800
O334        O  0.54936779  0.95892292  0.79597270    -0.82700
O335        O  0.56021901  0.96517136  0.68964715    -0.85400
C336        C  0.55836179  0.96333944  0.63959453     1.02300
O337        O  0.53767804  0.95080558  0.61840105    -0.78100
O338        O  0.52209472  0.90486349  0.65837843    -0.78300
C339        C  0.51342035  0.88648875  0.68847950     1.02300
O340        O  0.46785756  0.90492982  0.74981529    -0.85600
O341        O  0.50149888  0.93651460  0.82545799    -0.82700
C342        C  0.50276101  0.95701013  0.81949676     0.97800
O343        O  0.50988590  0.96815230  0.77562779    -0.82700
O344        O  0.52276381  0.97747640  0.66903401    -0.85300
C345        C  0.50346304  0.96664427  0.64125843     1.02300
O346        O  0.49069793  0.94390401  0.64241835    -0.78200
O347        O  0.47368990  0.89654968  0.66833489    -0.78300
C348        C  0.45947880  0.89627207  0.70405620     1.02300
Cr349      Cr  0.50132354  0.91281024  0.77046556     1.93700
Cr350      Cr  0.53402780  0.96525634  0.73178703     1.93200
Cr351      Cr  0.50657828  0.92460527  0.65155909     1.39100
O352        O  0.51393784  0.93433805  0.71821269    -1.23400
O353        O  0.44064413  0.29217461  0.39750463    -0.85600
O354        O  0.40547100  0.28996710  0.46258694    -0.82700
C355        C  0.38454676  0.28546797  0.47589603     0.97800
O356        O  0.36636852  0.26445215  0.46878486    -0.82700
O357        O  0.35930927  0.26934893  0.36348936    -0.85400
C358        C  0.36111878  0.27034340  0.31337650     1.02300
O359        O  0.37421627  0.26321962  0.29041429    -0.78100
O360        O  0.42006358  0.29400734  0.32902806    -0.78300
C361        C  0.43853736  0.30394577  0.35852062     1.02300
O362        O  0.42265656  0.24071110  0.41941895    -0.85600
O363        O  0.39044543  0.24069542  0.49574417    -0.82700
C364        C  0.37066490  0.22079303  0.48928104     0.97800
O365        O  0.35953452  0.21663047  0.44544183    -0.82700
O366        O  0.34886867  0.22061013  0.33962295    -0.85300
C367        C  0.36003882  0.21314069  0.30990397     1.02300
O368        O  0.38278229  0.22357695  0.31082199    -0.78200
O369        O  0.42982172  0.25457864  0.33720856    -0.78300
C370        C  0.43115843  0.24126948  0.37334927     1.02300
Cr371      Cr  0.41338746  0.26508288  0.44062938     1.93700
Cr372      Cr  0.36067822  0.24342520  0.40352287     1.93200
Cr373      Cr  0.40116518  0.25873905  0.32163118     1.39100
O374        O  0.39166469  0.25556772  0.38874908    -1.23400
O375        O  0.22949759  0.09161524  0.86325599    -0.85600
O376        O  0.26171454  0.08954936  0.79060310    -0.82700
C377        C  0.28167581  0.10930556  0.79673674     0.97800
O378        O  0.29273066  0.11364674  0.84079793    -0.82700
O379        O  0.30284646  0.11039700  0.94793425    -0.85400
C380        C  0.29225096  0.11898597  0.97604294     1.02300
O381        O  0.26964225  0.10990391  0.97290318    -0.78100
O382        O  0.22194267  0.07991011  0.94705102    -0.78300
C383        C  0.22050746  0.09196793  0.90813368     1.02300
O384        O  0.21008582  0.04046392  0.89017006    -0.85600
O385        O  0.24520759  0.04038414  0.82794095    -0.82700
C386        C  0.26598469  0.04443436  0.81456647     0.97800
O387        O  0.28439729  0.06525545  0.82143248    -0.82700
O388        O  0.29024465  0.06086545  0.92831400    -0.85300
C389        C  0.28835809  0.06114105  0.97836161     1.02300
O390        O  0.27562598  0.06922794  0.99914300    -0.78200
O391        O  0.22923202  0.03925675  0.96212595    -0.78300
C392        C  0.21103286  0.02936503  0.93181012     1.02300
Cr393      Cr  0.23806391  0.06627958  0.84631243     1.93700
Cr394      Cr  0.29035626  0.08693107  0.88532682     1.93200
Cr395      Cr  0.24970362  0.07459311  0.96550665     1.39100
O396        O  0.25940450  0.07604033  0.89892947    -1.23400
C397        C  0.28889169  0.12929460  0.60248003    -0.18100
C398        C  0.30211660  0.14425231  0.55943438    -0.20300
C399        C  0.32413926  0.16582413  0.56823230     0.20400
C400        C  0.33292115  0.17238349  0.62093132    -0.03200
C401        C  0.31950641  0.15731021  0.66445075    -0.06300
C402        C  0.29740713  0.13561876  0.65520455     0.20600
C403        C  0.32829172  0.16390667  0.71713948     0.18800
C404        C  0.35027876  0.18549285  0.72595545    -0.17800
C405        C  0.36350876  0.20042368  0.68293713    -0.20000
C406        C  0.35502099  0.19406895  0.63023097     0.20300
C407        C  0.36797891  0.20926042  0.58688575    -0.33000
C408        C  0.35904438  0.20319512  0.53422583     0.01000
C409        C  0.33725595  0.18116347  0.52536573    -0.24300
C410        C  0.28447601  0.12044832  0.69866292    -0.28900
C411        C  0.29343480  0.12660401  0.75134147     0.06700
C412        C  0.31520846  0.14862875  0.76005348    -0.27600
H413        H  0.27200507  0.11273096  0.59448936     0.11400
H414        H  0.29507065  0.13895941  0.51918896     0.12500
H415        H  0.35730036  0.19081580  0.76620810     0.11600
H416        H  0.38037926  0.21700178  0.69093998     0.10800
H417        H  0.38457860  0.22619310  0.59440341     0.16200
H418        H  0.33007976  0.17621426  0.48510649     0.12100
H419        H  0.26784761  0.10352758  0.69126152     0.15000
H420        H  0.32237202  0.15366814  0.80030070     0.14800
C421        C  0.35385048  0.14918808  0.11860642    -0.18100
C422        C  0.36178979  0.16020806  0.16868711    -0.20300
C423        C  0.35007591  0.17122032  0.19413444     0.20400
C424        C  0.33007914  0.17099697  0.16908311    -0.03200
C425        C  0.32226648  0.16014674  0.11830799    -0.06300
C426        C  0.33416564  0.14913011  0.09299338     0.20600
C427        C  0.30241434  0.16015875  0.09312195     0.18800
C428        C  0.29065946  0.17109674  0.11858389    -0.17800
C429        C  0.29845525  0.18192433  0.16877109    -0.20000
C430        C  0.31810572  0.18195179  0.19435193     0.20300
C431        C  0.32657880  0.19361298  0.24371744    -0.33000
C432        C  0.34728491  0.19507631  0.26744840     0.01000
C433        C  0.35855945  0.18327667  0.24315367    -0.24300
C434        C  0.32564590  0.13755912  0.04341583    -0.28900
C435        C  0.30516291  0.13657159  0.01933188     0.06700
C436        C  0.29411360  0.14851930  0.04375268    -0.27600
H437        H  0.36311587  0.14071872  0.09988891     0.11400
H438        H  0.37718522  0.16023491  0.18738855     0.12500
H439        H  0.27535470  0.17119735  0.09974791     0.11600
H440        H  0.28919747  0.19041046  0.18745075     0.10800
H441        H  0.31813694  0.20309164  0.26162697     0.16200
H442        H  0.37468089  0.18453333  0.26110876     0.12100
H443        H  0.33397484  0.12799916  0.02538746     0.15000
H444        H  0.27822110  0.14768660  0.02558533     0.14800
C445        C  0.45104455  0.17782813  0.42318845    -0.18100
C446        C  0.45582470  0.15947672  0.40782291    -0.20300
C447        C  0.45990157  0.15657726  0.35378833     0.20400
C448        C  0.46000442  0.17280871  0.31504320    -0.03200
C449        C  0.45512581  0.19129415  0.33054807    -0.06300
C450        C  0.45022436  0.19355596  0.38475874     0.20600
C451        C  0.45435797  0.20697074  0.29153806     0.18800
C452        C  0.45914572  0.20451568  0.23772238    -0.17800
C453        C  0.46410265  0.18627946  0.22239830    -0.20000
C454        C  0.46428282  0.17014483  0.26060549     0.20300
C455        C  0.46804991  0.15104213  0.24518758    -0.33000
C456        C  0.46703435  0.13428600  0.28336816     0.01000
C457        C  0.46329067  0.13738253  0.33766298    -0.24300
C458        C  0.44367237  0.21085400  0.39924495    -0.28900
C459        C  0.44183501  0.22583778  0.36015334     0.06700
C460        C  0.44791633  0.22422255  0.30664064    -0.27600
H461        H  0.44746808  0.17938285  0.46498814     0.11400
H462        H  0.45588366  0.14725597  0.43810149     0.12500
H463        H  0.45864279  0.21644862  0.20729431     0.11600
H464        H  0.46737408  0.18452902  0.18050064     0.10800
H465        H  0.47094704  0.14872561  0.20333788     0.16200
H466        H  0.46284132  0.12470144  0.36742046     0.12100
H467        H  0.43909180  0.21198257  0.44054831     0.15000
H468        H  0.44658824  0.23566340  0.27610227     0.14800
C469        C  0.33990502  0.02411074  0.99628540    -0.18100
C470        C  0.36035330  0.02463590  0.01859333    -0.20300
C471        C  0.37276766  0.04028159  0.06130450     0.20400
C472        C  0.36405609  0.05504914  0.08274291    -0.03200
C473        C  0.34309075  0.05409249  0.06106622    -0.06300
C474        C  0.33131160  0.03895792  0.01682397     0.20600
C475        C  0.33448363  0.06896330  0.08234545     0.18800
C476        C  0.34664352  0.08431951  0.12562347    -0.17800
C477        C  0.36763158  0.08555228  0.14654094    -0.20000
C478        C  0.37663280  0.07123010  0.12494192     0.20300
C479        C  0.39814092  0.07301096  0.14435789    -0.33000
C480        C  0.40692162  0.05837662  0.12321781     0.01000
C481        C  0.39393787  0.04172342  0.08239101    -0.24300
C482        C  0.31192686  0.03985047  0.99228609    -0.28900
C483        C  0.30400964  0.05546266  0.01180475     0.06700
C484        C  0.31467963  0.06918580  0.05818943    -0.27600
H485        H  0.33101841  0.01234359  0.96241493     0.11400
H486        H  0.36675851  0.01316832  0.00169847     0.12500
H487        H  0.34025563  0.09581405  0.14245407     0.11600
H488        H  0.37699106  0.09793071  0.17923265     0.10800
H489        H  0.40791556  0.08555485  0.17657442     0.16200
H490        H  0.40065321  0.03036944  0.06624126     0.12100
H491        H  0.30374787  0.02929204  0.95642448     0.15000
H492        H  0.30888301  0.08152808  0.07287122     0.14800
C493        C  0.49275332  0.97926678  0.05752510    -0.18100
C494        C  0.49510004  0.96652571  0.01444344    -0.20300
C495        C  0.49527186  0.97415321  0.96154793     0.20400
C496        C  0.49350854  0.99514234  0.95211522    -0.03200
C497        C  0.49118627  0.00806512  0.99570650    -0.06300
C498        C  0.49055863  0.99990948  0.04858275     0.20600
C499        C  0.48914356  0.02890106  0.98633440     0.18800
C500        C  0.48981691  0.03681092  0.93344463    -0.17800
C501        C  0.49222289  0.02408558  0.89031674    -0.20000
C502        C  0.49393676  0.00314933  0.89918358     0.20300
C503        C  0.49620659  0.99017847  0.85611982    -0.33000
C504        C  0.49794335  0.96915101  0.86504725     0.01000
C505        C  0.49733368  0.96124571  0.91805809    -0.24300
C506        C  0.48719189  0.01216481  0.09154339    -0.28900
C507        C  0.48439748  0.03255385  0.08268006     0.06700
C508        C  0.48590686  0.04109373  0.02985238    -0.27600
H509        H  0.49241138  0.97281177  0.09790806     0.11400
H510        H  0.49661736  0.95057780  0.02251848     0.12500
H511        H  0.48830002  0.05276011  0.92537581     0.11600
H512        H  0.49260820  0.03056124  0.84993348     0.10800
H513        H  0.49685362  0.99662123  0.81556759     0.16200
H514        H  0.49907229  0.94537843  0.92559645     0.12100
H515        H  0.48619577  0.00544700  0.13196393     0.15000
H516        H  0.48368737  0.05668321  0.02239462     0.14800
C517        C  0.44432491  0.97046906  0.45150062    -0.18100
C518        C  0.44765379  0.96367050  0.50274305    -0.20300
C519        C  0.47048484  0.97595302  0.52754602     0.20400
C520        C  0.49009264  0.99544005  0.50087818    -0.03200
C521        C  0.48680914  0.00207061  0.44899894    -0.06300
C522        C  0.46379113  0.98958122  0.42421521     0.20600
C523        C  0.50655529  0.02127211  0.42205406     0.18800
C524        C  0.52930971  0.03374462  0.44703641    -0.17800
C525        C  0.53258120  0.02712525  0.49840105    -0.20000
C526        C  0.51314726  0.00793174  0.52549007     0.20300
C527        C  0.51671131  0.00016250  0.57544592    -0.33000
C528        C  0.49771679  0.97963106  0.60021981     0.01000
C529        C  0.47440039  0.96827243  0.57725343    -0.24300
C530        C  0.46046587  0.99706989  0.37353460    -0.28900
C531        C  0.47983529  0.01703196  0.34789550     0.06700
C532        C  0.50301170  0.02833484  0.37141748    -0.27600
H533        H  0.42655074  0.96072723  0.43312950     0.11400
H534        H  0.43243728  0.94862733  0.52273362     0.12500
H535        H  0.54457998  0.04864939  0.42685219     0.11600
H536        H  0.55038947  0.03680768  0.51665544     0.10800
H537        H  0.53477389  0.00874718  0.59261817     0.16200
H538        H  0.45969983  0.95237567  0.59631941     0.12100
H539        H  0.44247363  0.98858146  0.35603259     0.15000
H540        H  0.51798876  0.04381907  0.35184562     0.14800
C541        C  0.17085458  0.96429874  0.06636815    -0.18100
C542        C  0.15263279  0.94102733  0.08118294    -0.20300
C543        C  0.13462353  0.92622020  0.04441059     0.20400
C544        C  0.13481345  0.93510261  0.99236119    -0.03200
C545        C  0.15319453  0.95863640  0.97741996    -0.06300
C546        C  0.17136191  0.97316743  0.01454690     0.20600
C547        C  0.15358905  0.96746807  0.92518657     0.18800
C548        C  0.13548281  0.95268142  0.88852980    -0.17800
C549        C  0.11734141  0.92930195  0.90323795    -0.20000
C550        C  0.11692602  0.92032162  0.95493266     0.20300
C551        C  0.09929817  0.89662316  0.96941085    -0.33000
C552        C  0.09931951  0.88737948  0.02081356     0.01000
C553        C  0.11682742  0.90248994  0.05837023    -0.24300
C554        C  0.18991174  0.99621343  0.99911529    -0.28900
C555        C  0.19065052  0.00516079  0.94702870     0.06700
C556        C  0.17223947  0.99076400  0.91039622    -0.27600
H557        H  0.18468789  0.97529971  0.09535165     0.11400
H558        H  0.15278012  0.93451004  0.12125577     0.12500
H559        H  0.13547649  0.95911207  0.84829495     0.11600
H560        H  0.10373168  0.91815468  0.87398984     0.10800
H561        H  0.08595927  0.88513976  0.94000872     0.16200
H562        H  0.11714587  0.89552190  0.09786673     0.12100
H563        H  0.20387991  0.00719957  0.02789259     0.15000
H564        H  0.17267676  0.99747710  0.87021321     0.14800
C565        C  0.37029850  0.85944613  0.55385434    -0.18100
C566        C  0.39364434  0.86496665  0.56957854    -0.20300
C567        C  0.40156255  0.87207101  0.62244538     0.20400
C568        C  0.38570682  0.87328626  0.66004916    -0.03200
C569        C  0.36218549  0.86781693  0.64411811    -0.06300
C570        C  0.35446430  0.86100266  0.59065440     0.20600
C571        C  0.34659954  0.86965814  0.68146775     0.18800
C572        C  0.35433223  0.87634068  0.73453475    -0.17800
C573        C  0.37758806  0.88171515  0.75030132    -0.20000
C574        C  0.39352313  0.88050778  0.71328153     0.20300
C575        C  0.41731230  0.88701557  0.72822566    -0.33000
C576        C  0.43348218  0.88650998  0.69059539     0.01000
C577        C  0.42525138  0.87857631  0.63797662    -0.24300
C578        C  0.33128153  0.85637351  0.57479040    -0.28900
C579        C  0.31597009  0.85892552  0.61157374     0.06700
C580        C  0.32371785  0.86526241  0.66496770    -0.27600
H581        H  0.36474160  0.85425479  0.51269858     0.11400
H582        H  0.40561902  0.86393989  0.54018848     0.12500
H583        H  0.34249029  0.87772565  0.76372623     0.11600
H584        H  0.38323182  0.88715479  0.79131767     0.10800
H585        H  0.42343800  0.89316049  0.76870646     0.16200
H586        H  0.43751844  0.87815634  0.60845237     0.12100
H587        H  0.32545936  0.85150089  0.53363611     0.15000
H588        H  0.31194593  0.86697611  0.69385565     0.14800
C589        C  0.38525088  0.97498177  0.45338536    -0.18100
C590        C  0.36520803  0.95427510  0.47436514    -0.20300
C591        C  0.34189163  0.94632720  0.45384300     0.20400
C592        C  0.33860001  0.95967142  0.41270869    -0.03200
C593        C  0.35891254  0.98029497  0.39076938    -0.06300
C594        C  0.38235715  0.98784123  0.41096499     0.20600
C595        C  0.35585503  0.99281073  0.34740548     0.18800
C596        C  0.33241069  0.98534521  0.32824170    -0.17800
C597        C  0.31219898  0.96526706  0.35092297    -0.20000
C598        C  0.31511369  0.95205234  0.39255802     0.20300
C599        C  0.29507663  0.93110741  0.41368899    -0.33000
C600        C  0.29845465  0.91727709  0.45317343     0.01000
C601        C  0.32186629  0.92508429  0.47323840    -0.24300
C602        C  0.40260061  0.00737129  0.38674637    -0.28900
C603        C  0.39981474  0.01881299  0.34121309     0.06700
C604        C  0.37636464  0.01184271  0.32251760    -0.27600
H605        H  0.40309346  0.98062776  0.46954210     0.11400
H606        H  0.36798091  0.94432780  0.50629633     0.12500
H607        H  0.32973123  0.99483256  0.29516347     0.11600
H608        H  0.29433078  0.95973856  0.33505232     0.10800
H609        H  0.27701339  0.92516837  0.39841496     0.16200
H610        H  0.32443920  0.91469446  0.50450835     0.12100
H611        H  0.42064881  0.01243474  0.40082738     0.15000
H612        H  0.37417447  0.02061385  0.28733861     0.14800
C613        C  0.24277125  0.95823512  0.81618660    -0.18100
C614        C  0.24309926  0.93840476  0.79304401    -0.20300
C615        C  0.25680705  0.94148622  0.74668522     0.20400
C616        C  0.27098625  0.96491091  0.72441673    -0.03200
C617        C  0.27093623  0.98499724  0.74825066    -0.06300
C618        C  0.25631674  0.98148619  0.79360854     0.20600
C619        C  0.28485617  0.00842169  0.72567475     0.18800
C620        C  0.29890132  0.01152556  0.67986015    -0.17800
C621        C  0.29854365  0.99151873  0.65556528    -0.20000
C622        C  0.28439156  0.96811285  0.67709519     0.20300
C623        C  0.28247065  0.94772565  0.65081563    -0.33000
C624        C  0.26754878  0.92425132  0.67165282     0.01000
C625        C  0.25555597  0.92138201  0.72068495    -0.24300
C626        C  0.25501292  0.00116680  0.81479417    -0.28900
C627        C  0.26853370  0.02443415  0.79211496     0.06700
C628        C  0.28392154  0.02814481  0.74846384    -0.27600
H629        H  0.23158774  0.95531364  0.85122957     0.11400
H630        H  0.23209000  0.92053850  0.81054667     0.12500
H631        H  0.30970822  0.02934844  0.66204152     0.11600
H632        H  0.30901397  0.99429706  0.61937218     0.10800
H633        H  0.29175578  0.95000265  0.61299995     0.16200
H634        H  0.24377464  0.90331355  0.73656705     0.12100
H635        H  0.24343157  0.99842114  0.84906524     0.15000
H636        H  0.29436937  0.04612921  0.73109886     0.14800
C637        C  0.17444903  0.82365742  0.22403569    -0.18100
C638        C  0.18962527  0.82645033  0.26737982    -0.20300
C639        C  0.18442310  0.83154969  0.31876863     0.20400
C640        C  0.16359773  0.83376092  0.32640064    -0.03200
C641        C  0.14825961  0.83097168  0.28253240    -0.06300
C642        C  0.15375984  0.82592006  0.23117027     0.20600
C643        C  0.12742897  0.83318126  0.29011662     0.18800
C644        C  0.12219274  0.83820867  0.34155947    -0.17800
C645        C  0.13740912  0.84105968  0.38490758    -0.20000
C646        C  0.15815764  0.83889161  0.37775337     0.20300
C647        C  0.17370908  0.84210667  0.42090105    -0.33000
C648        C  0.19483924  0.84040602  0.41368513     0.01000
C649        C  0.19985398  0.83482336  0.36237680    -0.24300
C650        C  0.13836832  0.82293348  0.18791216    -0.28900
C651        C  0.11727402  0.82470328  0.19495614     0.06700
C652        C  0.11208477  0.83004685  0.24635928    -0.27600
H653        H  0.17890965  0.81971408  0.18483651     0.11400
H654        H  0.20550080  0.82468820  0.26063664     0.12500
H655        H  0.10630245  0.83994397  0.34830986     0.11600
H656        H  0.13295888  0.84501981  0.42409999     0.10800
H657        H  0.16954845  0.84642819  0.46004162     0.16200
H658        H  0.21605402  0.83358014  0.35605501     0.12100
H659        H  0.14263988  0.81872926  0.14876395     0.15000
H660        H  0.09588520  0.83130153  0.25256881     0.14800
C661        C  0.17063880  0.87702004  0.77837509    -0.18100
C662        C  0.16048536  0.87348132  0.82952386    -0.20300
C663        C  0.15048877  0.85068911  0.85458168     0.20400
C664        C  0.15050808  0.83118948  0.82786814    -0.03200
C665        C  0.16049662  0.83468774  0.77606453    -0.06300
C666        C  0.17081775  0.85778212  0.75139685     0.20600
C667        C  0.16062797  0.81521906  0.74947285     0.18800
C668        C  0.15045311  0.79237323  0.77434919    -0.17800
C669        C  0.14038697  0.78886331  0.82558005    -0.20000
C670        C  0.14038983  0.80815431  0.85273022     0.20300
C671        C  0.12956529  0.80457170  0.90332551    -0.33000
C672        C  0.12832624  0.82360829  0.92873063     0.01000
C673        C  0.13961634  0.84681972  0.90501618    -0.24300
C674        C  0.18227530  0.86154375  0.70150493    -0.28900
C675        C  0.18391897  0.84261621  0.67670458     0.06700
C676        C  0.17205868  0.81924883  0.69967926    -0.27600
H677        H  0.17857064  0.89486622  0.76014229     0.11400
H678        H  0.16045494  0.88857979  0.84951040     0.12500
H679        H  0.15050958  0.77727951  0.75439890     0.11600
H680        H  0.13257632  0.77105397  0.84394783     0.10800
H681        H  0.12047666  0.78654163  0.92089975     0.16200
H682        H  0.13855870  0.86152819  0.92435560     0.12100
H683        H  0.19167074  0.87965076  0.68434926     0.15000
H684        H  0.17329839  0.80458414  0.68063059     0.14800
C685        C  0.17068121  0.13605899  0.04265419    -0.18100
C686        C  0.17547404  0.11788537  0.02576477    -0.20300
C687        C  0.18808149  0.12051173  0.97780527     0.20400
C688        C  0.19491121  0.14108176  0.94523345    -0.03200
C689        C  0.19020362  0.15949305  0.96245258    -0.06300
C690        C  0.17847946  0.15720744  0.01196153     0.20600
C691        C  0.19805603  0.18057471  0.93108843     0.18800
C692        C  0.20951451  0.18261816  0.88173547    -0.17800
C693        C  0.21414979  0.16437441  0.86465638    -0.20000
C694        C  0.20743140  0.14379846  0.89667886     0.20300
C695        C  0.21414755  0.12658337  0.88245884    -0.33000
C696        C  0.20896534  0.10699093  0.91678862     0.01000
C697        C  0.19508188  0.10358639  0.96330019    -0.24300
C698        C  0.17538476  0.17636378  0.03058180    -0.28900
C699        C  0.18407973  0.19787520  0.00052210     0.06700
C700        C  0.19494059  0.19954452  0.95025018    -0.27600
H701        H  0.16144357  0.13385714  0.08045804     0.11400
H702        H  0.16990921  0.10207163  0.05099989     0.12500
H703        H  0.21543882  0.19862033  0.85692618     0.11600
H704        H  0.22362109  0.16669691  0.82712805     0.10800
H705        H  0.22476198  0.12931677  0.84649305     0.16200
H706        H  0.19070570  0.08835102  0.98964780     0.12100
H707        H  0.16670083  0.17472808  0.06891310     0.15000
H708        H  0.20134915  0.21582228  0.92612332     0.14800
C709        C  0.30152890  0.29802456  0.31233210    -0.18100
C710        C  0.28130257  0.29757676  0.28909231    -0.20300
C711        C  0.27355065  0.28787358  0.23772849     0.20400
C712        C  0.28680905  0.27926482  0.20873988    -0.03200
C713        C  0.30743876  0.28003492  0.23192566    -0.06300
C714        C  0.31446746  0.28897783  0.28439689     0.20600
C715        C  0.32036783  0.27089277  0.20354465     0.18800
C716        C  0.31305516  0.26189363  0.15147436    -0.17800
C717        C  0.29250406  0.26097285  0.12861718    -0.20000
C718        C  0.27896968  0.26911163  0.15737664     0.20300
C719        C  0.25740099  0.26671312  0.13638916    -0.33000
C720        C  0.24394723  0.27484448  0.16558602     0.01000
C721        C  0.25241820  0.28601465  0.21545595    -0.24300
C722        C  0.33351656  0.28758863  0.30907719    -0.28900
C723        C  0.34551722  0.27710395  0.28236614     0.06700
C724        C  0.33951135  0.26970323  0.22878759    -0.27600
H725        H  0.30675629  0.30499599  0.35264505     0.11400
H726        H  0.27137669  0.30429294  0.31181637     0.12500
H727        H  0.32281556  0.25491156  0.12901136     0.11600
H728        H  0.28688029  0.25338507  0.08888276     0.10800
H729        H  0.25102541  0.25853602  0.09733725     0.16200
H730        H  0.24207793  0.29244582  0.23760827     0.12100
H731        H  0.33813731  0.29350272  0.35026665     0.15000
H732        H  0.34856371  0.26148776  0.20801317     0.14800
C733        C  0.14615120  0.30007839  0.39895680    -0.18100
C734        C  0.14916106  0.28778288  0.35564363    -0.20300
C735        C  0.15540496  0.29859679  0.30465244     0.20400
C736        C  0.15850133  0.32205775  0.29752754    -0.03200
C737        C  0.15560013  0.33454616  0.34136420    -0.06300
C738        C  0.14940484  0.32350349  0.39230390     0.20600
C739        C  0.15887663  0.35806486  0.33411761     0.18800
C740        C  0.16495808  0.36883171  0.28314571    -0.17800
C741        C  0.16779582  0.35650132  0.23987259    -0.20000
C742        C  0.16464128  0.33315057  0.24666049     0.20300
C743        C  0.16786744  0.32092229  0.20350460    -0.33000
C744        C  0.16539390  0.29770464  0.21001876     0.01000
C745        C  0.15891997  0.28657170  0.26092806    -0.24300
C746        C  0.14636460  0.33596945  0.43550832    -0.28900
C747        C  0.14935311  0.35942014  0.42869584     0.06700
C748        C  0.15579263  0.37032910  0.37768372    -0.27600
H749        H  0.14131538  0.29125411  0.43778218     0.11400
H750        H  0.14665565  0.26980814  0.36210130     0.12500
H751        H  0.16751396  0.38682674  0.27669443     0.11600
H752        H  0.17255551  0.36529979  0.20101271     0.10800
H753        H  0.17288547  0.32987520  0.16481319     0.16200
H754        H  0.15702090  0.26880008  0.26675385     0.12100
H755        H  0.14127908  0.32717882  0.47436117     0.15000
H756        H  0.15799491  0.38821147  0.37158488     0.14800
C757        C  0.11731387  0.29491813  0.84598504    -0.18100
C758        C  0.11443453  0.30155363  0.79428528    -0.20300
C759        C  0.13375816  0.32147163  0.76865606     0.20400
C760        C  0.15620295  0.33487634  0.79537872    -0.03200
C761        C  0.15904037  0.32833601  0.84763482    -0.06300
C762        C  0.13954453  0.30814794  0.87279734     0.20600
C763        C  0.18153725  0.34166186  0.87420988     0.18800
C764        C  0.20084228  0.36161433  0.84864968    -0.17800
C765        C  0.19795946  0.36824056  0.79696644    -0.20000
C766        C  0.17575946  0.35495077  0.77008255     0.20300
C767        C  0.17246021  0.36203696  0.71924283    -0.33000
C768        C  0.14967669  0.34978072  0.69396071     0.01000
C769        C  0.13070243  0.32889194  0.71779655    -0.24300
C770        C  0.14304959  0.30072378  0.92308868    -0.28900
C771        C  0.16598071  0.31276312  0.94776402     0.06700
C772        C  0.18476712  0.33395308  0.92453972    -0.27600
H773        H  0.10222507  0.27929508  0.86480779     0.11400
H774        H  0.09708118  0.29116102  0.77441124     0.12500
H775        H  0.21824220  0.37192157  0.86839051     0.11600
H776        H  0.21308444  0.38379139  0.77804094     0.10800
H777        H  0.18717279  0.37819261  0.70097821     0.16200
H778        H  0.11302086  0.31957358  0.69882623     0.12100
H779        H  0.12848621  0.28435250  0.94102658     0.15000
H780        H  0.20253949  0.34311507  0.94313017     0.14800
C781        C  0.05220302  0.22775926  0.08256186    -0.18100
C782        C  0.02927482  0.22313882  0.06600583    -0.20300
C783        C  0.01967601  0.21184259  0.01664527     0.20400
C784        C  0.03332810  0.20529291  0.98336889    -0.03200
C785        C  0.05654934  0.21004252  0.00003421    -0.06300
C786        C  0.06597985  0.22123127  0.04999703     0.20600
C787        C  0.07036393  0.20374635  0.96657478     0.18800
C788        C  0.06088043  0.19276759  0.91686330    -0.17800
C789        C  0.03780099  0.18790075  0.90054522    -0.20000
C790        C  0.02379497  0.19400746  0.93352042     0.20300
C791        C  0.00044380  0.18896510  0.91771435    -0.33000
C792        C  0.98660373  0.19523768  0.95106002     0.01000
C793        C  0.99659188  0.20689197  0.00025046    -0.24300
C794        C  0.08917526  0.22611747  0.06607983    -0.28900
C795        C  0.10326517  0.22030099  0.03251286     0.06700
C796        C  0.09357116  0.20890679  0.98298251    -0.27600
H797        H  0.05918110  0.23649099  0.12083385     0.11400
H798        H  0.01899552  0.22834129  0.09194762     0.12500
H799        H  0.07132521  0.18792140  0.89055298     0.11600
H800        H  0.03090066  0.17933786  0.86209728     0.10800
H801        H  0.99308290  0.18019629  0.87964783     0.16200
H802        H  0.98627074  0.21196317  0.02642509     0.12100
H803        H  0.09660121  0.23525840  0.10379430     0.15000
H804        H  0.10431721  0.20449090  0.95653769     0.14800
C805        C  0.00185237  0.32234312  0.68247548    -0.18100
C806        C  0.98143753  0.30229926  0.70460543    -0.20300
C807        C  0.98412703  0.28785307  0.74357490     0.20400
C808        C  0.00759061  0.29434810  0.76216248    -0.03200
C809        C  0.02810305  0.31489317  0.74087389    -0.06300
C810        C  0.02525724  0.32848971  0.69960394     0.20600
C811        C  0.05152974  0.32108925  0.75903759     0.18800
C812        C  0.05423415  0.30711489  0.79909464    -0.17800
C813        C  0.03395345  0.28652012  0.81948116    -0.20000
C814        C  0.01066404  0.27980390  0.80059392     0.20300
C815        C  0.99046743  0.25845742  0.81855531    -0.33000
C816        C  0.96712188  0.25158504  0.79951482     0.01000
C817        C  0.96391093  0.26666035  0.76317832    -0.24300
C818        C  0.04589505  0.34705310  0.67421423    -0.28900
C819        C  0.06920445  0.35240625  0.69050185     0.06700
C820        C  0.07191169  0.34020892  0.73456130    -0.27600
H821        H  0.99935968  0.33271740  0.65111794     0.11400
H822        H  0.96358687  0.29767326  0.69008013     0.12500
H823        H  0.07209247  0.31168273  0.81346555     0.11600
H824        H  0.03652182  0.27559278  0.84933035     0.10800
H825        H  0.99290461  0.24712636  0.84761311     0.16200
H826        H  0.94586843  0.26145553  0.74886366     0.12100
H827        H  0.04386669  0.35652496  0.64016457     0.15000
H828        H  0.08989225  0.34412763  0.74667460     0.14800
C829        C  0.58987264  0.13806570  0.37247004    -0.18100
C830        C  0.61319372  0.14332955  0.38784181    -0.20300
C831        C  0.62759137  0.13842519  0.35321555     0.20400
C832        C  0.61842185  0.12844505  0.30218423    -0.03200
C833        C  0.59492221  0.12325778  0.28652720    -0.06300
C834        C  0.58051397  0.12787146  0.32208445     0.20600
C835        C  0.58568450  0.11299762  0.23574921     0.18800
C836        C  0.60015181  0.10833090  0.20087059    -0.17800
C837        C  0.62335891  0.11339925  0.21639729    -0.20000
C838        C  0.63255557  0.12326528  0.26707198     0.20300
C839        C  0.65551459  0.12771488  0.28338510    -0.33000
C840        C  0.66482007  0.13739125  0.33443282     0.01000
C841        C  0.65079768  0.14297772  0.36892908    -0.24300
C842        C  0.55679682  0.12164815  0.30722459    -0.28900
C843        C  0.54714290  0.11079059  0.25721082     0.06700
C844        C  0.56194515  0.10697906  0.22129703    -0.27600
H845        H  0.57904422  0.14175057  0.40026899     0.11400
H846        H  0.61986536  0.15099964  0.42710763     0.12500
H847        H  0.59340265  0.10047373  0.16177401     0.11600
H848        H  0.63404502  0.10937810  0.18890009     0.10800
H849        H  0.66613267  0.12348728  0.25611039     0.16200
H850        H  0.65771980  0.15041376  0.40824791     0.12100
H851        H  0.54562104  0.12470495  0.33532879     0.15000
H852        H  0.55470134  0.09848803  0.18291994     0.14800
C853        C  0.66746538  0.03207636  0.59784491    -0.18100
C854        C  0.64719347  0.01206997  0.62049629    -0.20300
C855        C  0.62384175  0.00441414  0.60049935     0.20400
C856        C  0.62094066  0.01659500  0.55623093    -0.03200
C857        C  0.64131177  0.03713281  0.53425414    -0.06300
C858        C  0.66469007  0.04499712  0.55535898     0.20600
C859        C  0.63817215  0.05020684  0.49224657     0.18800
C860        C  0.61494848  0.04204572  0.47092699    -0.17800
C861        C  0.59482338  0.02147491  0.49212128    -0.20000
C862        C  0.59757084  0.00889670  0.53535437     0.20300
C863        C  0.57723583  0.98961780  0.55990958    -0.33000
C864        C  0.57988063  0.97862779  0.60638308     0.01000
C865        C  0.60325140  0.98562045  0.62559400    -0.24300
C866        C  0.68476062  0.06591321  0.53434032    -0.28900
C867        C  0.68152763  0.07948232  0.49398398     0.06700
C868        C  0.65824177  0.07144491  0.47292208    -0.27600
H869        H  0.68525807  0.03780335  0.61442588     0.11400
H870        H  0.64974167  0.00283573  0.65428780     0.12500
H871        H  0.61229346  0.05179391  0.43836615     0.11600
H872        H  0.57701522  0.01580386  0.47567057     0.10800
H873        H  0.55922963  0.98450945  0.54544268     0.16200
H874        H  0.60530854  0.97715177  0.66146846     0.12100
H875        H  0.70274567  0.07203461  0.55033055     0.15000
H876        H  0.65581599  0.08164379  0.44096982     0.14800
C877        C  0.84237741  0.15393266  0.56562994    -0.18100
C878        C  0.85781609  0.15744459  0.60901544    -0.20300
C879        C  0.85353069  0.16444045  0.65931027     0.20400
C880        C  0.83353249  0.16814192  0.66553432    -0.03200
C881        C  0.81794318  0.16465810  0.62157652    -0.06300
C882        C  0.82232825  0.15738735  0.57151678     0.20600
C883        C  0.79786273  0.16822337  0.62790885     0.18800
C884        C  0.79377445  0.17554499  0.67799281    -0.17800
C885        C  0.80918843  0.17902338  0.72138063    -0.20000
C886        C  0.82902889  0.17523053  0.71569820     0.20300
C887        C  0.84442997  0.17847641  0.75927976    -0.33000
C888        C  0.86453071  0.17488063  0.75377839     0.01000
C889        C  0.86889245  0.16785532  0.70331594    -0.24300
C890        C  0.80642905  0.15334723  0.52845361    -0.28900
C891        C  0.78594925  0.15631498  0.53442913     0.06700
C892        C  0.78204093  0.16406370  0.58442387    -0.27600
H893        H  0.84606478  0.14837297  0.52743966     0.11400
H894        H  0.87307813  0.15457272  0.60324776     0.12500
H895        H  0.77853037  0.17844566  0.68374888     0.11600
H896        H  0.80550156  0.18458558  0.75956653     0.10800
H897        H  0.84085895  0.18411613  0.79751150     0.16200
H898        H  0.88434393  0.16523400  0.69811540     0.12100
H899        H  0.80980909  0.14740386  0.49040305     0.15000
H900        H  0.76643194  0.16640743  0.58985763     0.14800
C901        C  0.81850647  0.12328016  0.11563660    -0.18100
C902        C  0.80822103  0.11911045  0.16674036    -0.20300
C903        C  0.80962639  0.13839052  0.19676368     0.20400
C904        C  0.82181290  0.16218011  0.17539986    -0.03200
C905        C  0.83200254  0.16635307  0.12370263    -0.06300
C906        C  0.83028724  0.14678046  0.09374675     0.20600
C907        C  0.84397512  0.19010046  0.10210822     0.18800
C908        C  0.84577308  0.20945314  0.13255630    -0.17800
C909        C  0.83541322  0.20527113  0.18360049    -0.20000
C910        C  0.82324866  0.18169982  0.20508332     0.20300
C911        C  0.81131347  0.17709632  0.25437937    -0.33000
C912        C  0.79762140  0.15320565  0.27389227     0.01000
C913        C  0.79786406  0.13410211  0.24635789    -0.24300
C914        C  0.84115963  0.15118212  0.04321232    -0.28900
C915        C  0.85404077  0.17492415  0.02247575     0.06700
C916        C  0.85472001  0.19419705  0.05130944    -0.27600
H917        H  0.81720978  0.10811057  0.09317432     0.11400
H918        H  0.79889939  0.10075859  0.18250649     0.12500
H919        H  0.85512043  0.22781063  0.11681779     0.11600
H920        H  0.83663933  0.22042668  0.20600239     0.10800
H921        H  0.81110017  0.19185587  0.27563283     0.16200
H922        H  0.78704332  0.11562400  0.26092909     0.12100
H923        H  0.84087189  0.13632457  0.02129913     0.15000
H924        H  0.86516360  0.21260652  0.03610983     0.14800
C925        C  0.94904590  0.70742519  0.13072830    -0.18100
C926        C  0.92935531  0.68654881  0.15208963    -0.20300
C927        C  0.93263235  0.67454530  0.19575313     0.20400
C928        C  0.95610937  0.68316898  0.21701200    -0.03200
C929        C  0.97605471  0.70400269  0.19485666    -0.06300
C930        C  0.97235726  0.71642970  0.15227854     0.20600
C931        C  0.99954871  0.71277793  0.21626144     0.18800
C932        C  0.00284471  0.70050362  0.25937764    -0.17800
C933        C  0.98296570  0.68016911  0.28217319    -0.20000
C934        C  0.95951633  0.67156065  0.26171154     0.20300
C935        C  0.93927819  0.65232778  0.28669223    -0.33000
C936        C  0.91577838  0.64438647  0.26702545     0.01000
C937        C  0.91267747  0.65487582  0.22026773    -0.24300
C938        C  0.99196312  0.73787168  0.13255979    -0.28900
C939        C  0.01534662  0.74678388  0.15382859     0.06700
C940        C  0.01918918  0.73393451  0.19486708    -0.27600
H941        H  0.94598923  0.71670862  0.09776901     0.11400
H942        H  0.91146257  0.68013924  0.13531780     0.12500
H943        H  0.02072440  0.70695393  0.27624963     0.11600
H944        H  0.98588339  0.67139754  0.31636572     0.10800
H945        H  0.94166986  0.64424553  0.32283453     0.16200
H946        H  0.89454972  0.64902558  0.20546758     0.12100
H947        H  0.98909429  0.74759040  0.10019363     0.15000
H948        H  0.03725840  0.74080963  0.21111329     0.14800
C949        C  0.91838045  0.79864329  0.03578151    -0.18100
C950        C  0.94168670  0.80412509  0.05160296    -0.20300
C951        C  0.95708868  0.80138257  0.01565031     0.20400
C952        C  0.94889008  0.79315910  0.96305240    -0.03200
C953        C  0.92540152  0.78772838  0.94699738    -0.06300
C954        C  0.91007456  0.79038272  0.98367084     0.20600
C955        C  0.91713986  0.77928329  0.89456550     0.18800
C956        C  0.93254262  0.77657689  0.85856436    -0.17800
C957        C  0.95578349  0.78192338  0.87446617    -0.20000
C958        C  0.96403651  0.79008084  0.92664496     0.20300
C959        C  0.98709379  0.79497603  0.94311557    -0.33000
C960        C  0.99545653  0.80306743  0.99552717     0.01000
C961        C  0.98040294  0.80645401  0.03147198    -0.24300
C962        C  0.88652409  0.78423801  0.96803255    -0.28900
C963        C  0.87787070  0.77525545  0.91623903     0.06700
C964        C  0.89346412  0.77317277  0.87946185    -0.27600
H965        H  0.90677527  0.80071985  0.06446697     0.11400
H966        H  0.94760294  0.81035699  0.09211253     0.12500
H967        H  0.92653679  0.77011384  0.81821783     0.11600
H968        H  0.96725906  0.77951147  0.84601745     0.10800
H969        H  0.99857827  0.79245789  0.91485457     0.16200
H970        H  0.98663755  0.81259043  0.07189916     0.12100
H971        H  0.87469147  0.78585497  0.99689872     0.15000
H972        H  0.88695555  0.76609902  0.83969169     0.14800
C973        C  0.82502817  0.64203791  0.71877124    -0.18100
C974        C  0.82805341  0.62936936  0.67632574    -0.20300
C975        C  0.82826192  0.63660074  0.62301703     0.20400
C976        C  0.82550669  0.65696455  0.61265173    -0.03200
C977        C  0.82251961  0.66984420  0.65564745    -0.06300
C978        C  0.82218123  0.66225882  0.70890969     0.20600
C979        C  0.81975444  0.69020292  0.64529842     0.18800
C980        C  0.82002496  0.69746937  0.59198060    -0.17800
C981        C  0.82303869  0.68479097  0.54952427    -0.20000
C982        C  0.82581939  0.66452935  0.55938280     0.20300
C983        C  0.82922083  0.65194227  0.51696033    -0.33000
C984        C  0.83231013  0.63173166  0.52667313     0.01000
C985        C  0.83150467  0.62405468  0.58007584    -0.24300
C986        C  0.81866795  0.67476766  0.75133749    -0.28900
C987        C  0.81552133  0.69494399  0.74167280     0.06700
C988        C  0.81641982  0.70268918  0.68827033    -0.27600
H989        H  0.82484648  0.63594757  0.75943605     0.11400
H990        H  0.83022641  0.61387065  0.68525071     0.12500
H991        H  0.81787384  0.71298070  0.58305466     0.11600
H992        H  0.82323295  0.69088655  0.50885723     0.10800
H993        H  0.82982239  0.65816260  0.47621801     0.16200
H994        H  0.83409945  0.60875561  0.58837358     0.12100
H995        H  0.81803303  0.66851750  0.79206427     0.15000
H996        H  0.81380977  0.71797993  0.67999506     0.14800
C997        C  0.78247160  0.62776392  0.16353235    -0.18100
C998        C  0.77855579  0.63505420  0.11329301    -0.20300
C999        C  0.79779384  0.65413512  0.08532116     0.20400
C1000       C  0.82118895  0.66604856  0.10844262    -0.03200
C1001       C  0.82507176  0.65891120  0.15944297    -0.06300
C1002       C  0.80565105  0.63956397  0.18689544     0.20600
C1003       C  0.84844627  0.67097027  0.18265150     0.18800
C1004       C  0.86767792  0.69002719  0.15471541    -0.17800
C1005       C  0.86382286  0.69714658  0.10431386    -0.20000
C1006       C  0.84066518  0.68533008  0.08096532     0.20300
C1007       C  0.83648301  0.69311427  0.03159060    -0.33000
C1008       C  0.81302773  0.68213985  0.00939688     0.01000
C1009       C  0.79389180  0.66213999  0.03568108    -0.24300
C1010       C  0.80995296  0.63181602  0.23630560    -0.28900
C1011       C  0.83342566  0.64312576  0.25869806     0.06700
C1012       C  0.85239898  0.66319638  0.23242468    -0.27600
H1013       H  0.76736346  0.61284503  0.18408419     0.11400
H1014       H  0.76045774  0.62580412  0.09637515     0.12500
H1015       H  0.88573767  0.69939751  0.17180222     0.11600
H1016       H  0.87894635  0.71203331  0.08372783     0.10800
H1017       H  0.85127225  0.70866111  0.01176039     0.16200
H1018       H  0.77567596  0.65392240  0.01945165     0.12100
H1019       H  0.79527437  0.61616624  0.25610744     0.15000
H1020       H  0.87060967  0.67164656  0.24875643     0.14800
C1021       C  0.14966573  0.69515136  0.54194055    -0.18100
C1022       C  0.16682885  0.71884651  0.52668544    -0.20300
C1023       C  0.18147197  0.73595384  0.56525678     0.20400
C1024       C  0.17909649  0.72886910  0.61965763    -0.03200
C1025       C  0.16181634  0.70493586  0.63505788    -0.06300
C1026       C  0.14683284  0.68812718  0.59604436     0.20600
C1027       C  0.15918744  0.69800364  0.68959931     0.18800
C1028       C  0.17401441  0.71500300  0.72809691    -0.17800
C1029       C  0.19104909  0.73871163  0.71288306    -0.20000
C1030       C  0.19362783  0.74581960  0.65887435     0.20300
C1031       C  0.21018561  0.76972075  0.64365296    -0.33000
C1032       C  0.21242006  0.77719440  0.58969478     0.01000
C1033       C  0.19808847  0.76009458  0.55059436    -0.24300
C1034       C  0.12888892  0.66479270  0.61196360    -0.28900
C1035       C  0.12579011  0.65789755  0.66635801     0.06700
C1036       C  0.14138038  0.67442141  0.70482875    -0.27600
H1037       H  0.13836084  0.68239666  0.51144851     0.11400
H1038       H  0.16842907  0.72387783  0.48476444     0.12500
H1039       H  0.17223217  0.71004908  0.77009036     0.11600
H1040       H  0.20208308  0.75157290  0.74348772     0.10800
H1041       H  0.22094892  0.78270068  0.67434795     0.16200
H1042       H  0.19957361  0.76563972  0.50902885     0.12100
H1043       H  0.11707993  0.65203872  0.58198840     0.15000
H1044       H  0.13902088  0.66924426  0.74675498     0.14800
C1045       C  0.01806804  0.67459988  0.95483829    -0.18100
C1046       C  0.01851583  0.65466122  0.93258326    -0.20300
C1047       C  0.03349791  0.65775018  0.88858419     0.20400
C1048       C  0.04780436  0.68111606  0.86602262    -0.03200
C1049       C  0.04695915  0.70114712  0.88776901    -0.06300
C1050       C  0.03235036  0.69790425  0.93300613     0.20600
C1051       C  0.06134308  0.72452195  0.86539037     0.18800
C1052       C  0.07619054  0.72759359  0.82109393    -0.17800
C1053       C  0.07728805  0.70779519  0.80000326    -0.20000
C1054       C  0.06336879  0.68456711  0.82254602     0.20300
C1055       C  0.06495257  0.66477698  0.80286929    -0.33000
C1056       C  0.05072955  0.64148991  0.82515553     0.01000
C1057       C  0.03473142  0.63797840  0.86731396    -0.24300
C1058       C  0.03309480  0.71815760  0.95704718    -0.28900
C1059       C  0.04809907  0.74158467  0.93623196     0.06700
C1060       C  0.06149772  0.74455395  0.88926985    -0.27600
H1061       H  0.00676008  0.67183699  0.98956254     0.11400
H1062       H  0.00745918  0.63687858  0.95040077     0.12500
H1063       H  0.08734240  0.74540201  0.80345857     0.11600
H1064       H  0.08921851  0.71069655  0.76640235     0.10800
H1065       H  0.07705165  0.66739428  0.76973365     0.16200
H1066       H  0.02377717  0.62000489  0.88440765     0.12100
H1067       H  0.02281369  0.71584586  0.99337750     0.15000
H1068       H  0.07341592  0.76263732  0.87362510     0.14800
C1069       C  0.13198553  0.51726549  0.56332014    -0.18100
C1070       C  0.12653159  0.53524755  0.57779083    -0.20300
C1071       C  0.11903188  0.53623689  0.63013775     0.20400
C1072       C  0.11728763  0.51917276  0.66857709    -0.03200
C1073       C  0.12273769  0.50096885  0.65391502    -0.06300
C1074       C  0.13000851  0.49993656  0.60092250     0.20600
C1075       C  0.12048939  0.48356975  0.69199069     0.18800
C1076       C  0.11329685  0.48475510  0.74456331    -0.17800
C1077       C  0.10789868  0.50279774  0.75907997    -0.20000
C1078       C  0.10960461  0.51997187  0.72127816     0.20300
C1079       C  0.10314794  0.53749183  0.73475284    -0.33000
C1080       C  0.10419502  0.55414163  0.69606018     0.01000
C1081       C  0.11263811  0.55361911  0.64418192    -0.24300
C1082       C  0.13478460  0.48139059  0.58622872    -0.28900
C1083       C  0.13204309  0.46366772  0.62367649     0.06700
C1084       C  0.12509960  0.46506484  0.67662815    -0.27600
H1085       H  0.13751520  0.51676638  0.52252590     0.11400
H1086       H  0.12792803  0.54824710  0.54781225     0.12500
H1087       H  0.11157288  0.47154229  0.77433217     0.11600
H1088       H  0.10208934  0.50312568  0.79970500     0.10800
H1089       H  0.09658424  0.53764654  0.77472535     0.16200
H1090       H  0.11354237  0.56631445  0.61393069     0.12100
H1091       H  0.14006014  0.48041711  0.54543760     0.15000
H1092       H  0.12313915  0.45161687  0.70604273     0.14800
C1093       C  0.94950126  0.57942724  0.46796676    -0.18100
C1094       C  0.96985652  0.58000205  0.49085645    -0.20300
C1095       C  0.98114605  0.59456151  0.53575479     0.20400
C1096       C  0.97207240  0.60900625  0.55725269    -0.03200
C1097       C  0.95171833  0.60868417  0.53368684    -0.06300
C1098       C  0.94024056  0.59358025  0.48927898     0.20600
C1099       C  0.94258547  0.62310385  0.55517550     0.18800
C1100       C  0.95382686  0.63755157  0.60024529    -0.17800
C1101       C  0.97371359  0.63751459  0.62421656    -0.20000
C1102       C  0.98289578  0.62324516  0.60318363     0.20300
C1103       C  0.00209375  0.62224355  0.62844760    -0.33000
C1104       C  0.01075962  0.60735246  0.60815430     0.01000
C1105       C  0.00068661  0.59414291  0.56084045    -0.24300
C1106       C  0.91952232  0.59266364  0.46737309    -0.28900
C1107       C  0.91038814  0.60704286  0.48833074     0.06700
C1108       C  0.92217483  0.62251176  0.53171711    -0.27600
H1109       H  0.94089186  0.56777306  0.43378154     0.11400
H1110       H  0.97651753  0.56873602  0.47399862     0.12500
H1111       H  0.94703083  0.64864167  0.61741528     0.11600
H1112       H  0.98179752  0.64851161  0.65953676     0.10800
H1113       H  0.00970706  0.63234283  0.66510464     0.16200
H1114       H  0.00694677  0.58225795  0.54558990     0.12100
H1115       H  0.91052085  0.58084026  0.43358202     0.15000
H1116       H  0.91502899  0.63345660  0.54809600     0.14800
C1117       C  0.83457220  0.30051904  0.40676533    -0.18100
C1118       C  0.81632478  0.27717824  0.42150266    -0.20300
C1119       C  0.80248945  0.26000472  0.38227324     0.20400
C1120       C  0.80695115  0.26661106  0.32759427    -0.03200
C1121       C  0.82532968  0.29020275  0.31269876    -0.06300
C1122       C  0.83930266  0.30714887  0.35251456     0.20600
C1123       C  0.82985633  0.29673622  0.25798618     0.18800
C1124       C  0.81607325  0.27956762  0.21874953    -0.17800
C1125       C  0.79797366  0.25618994  0.23347877    -0.20000
C1126       C  0.79326197  0.24957058  0.28772880     0.20300
C1127       C  0.77533562  0.22608597  0.30267395    -0.33000
C1128       C  0.77093754  0.21911004  0.35704063     0.01000
C1129       C  0.78456614  0.23627344  0.39667087    -0.24300
C1130       C  0.85787562  0.33034763  0.33738485    -0.28900
C1131       C  0.86245929  0.33705567  0.28295623     0.06700
C1132       C  0.84820812  0.32021312  0.24348443    -0.27600
H1133       H  0.84509341  0.31336273  0.43785638     0.11400
H1134       H  0.81316401  0.27249945  0.46363226     0.12500
H1135       H  0.81935621  0.28418784  0.17660926     0.11600
H1136       H  0.78768053  0.24324227  0.20236428     0.10800
H1137       H  0.76520879  0.21300066  0.27162746     0.16200
H1138       H  0.78145095  0.23109182  0.43856617     0.12100
H1139       H  0.86871433  0.34329227  0.36807868     0.15000
H1140       H  0.85178804  0.32520029  0.20153669     0.14800
C1141       C  0.91874061  0.29296815  0.16406283    -0.18100
C1142       C  0.91834538  0.27274110  0.14111958    -0.20300
C1143       C  0.93044759  0.27499152  0.09264802     0.20400
C1144       C  0.94407375  0.29807588  0.06838795    -0.03200
C1145       C  0.94469345  0.31854324  0.09185188    -0.06300
C1146       C  0.93136783  0.31576599  0.13904772     0.20600
C1147       C  0.95766710  0.34152545  0.06673320     0.18800
C1148       C  0.97047238  0.34390384  0.01926572    -0.17800
C1149       C  0.96953219  0.32352781  0.99553949    -0.20000
C1150       C  0.95597553  0.30049228  0.01920129     0.20300
C1151       C  0.95292915  0.27966209  0.99304048    -0.33000
C1152       C  0.93814321  0.25647395  0.01542655     0.01000
C1153       C  0.92790256  0.25437177  0.06638224    -0.24300
C1154       C  0.93007887  0.33560334  0.15916533    -0.28900
C1155       C  0.94223477  0.35825715  0.13332480     0.06700
C1156       C  0.95672463  0.36143234  0.08831908    -0.27600
H1157       H  0.90861376  0.29064750  0.20060473     0.11400
H1158       H  0.90786071  0.25517868  0.16029918     0.12500
H1159       H  0.98058457  0.36138597  0.99957541     0.11600
H1160       H  0.97888391  0.32568328  0.95790755     0.10800
H1161       H  0.96100497  0.28136971  0.95387607     0.16200
H1162       H  0.91635975  0.23654303  0.08364576     0.12100
H1163       H  0.91925364  0.33337039  0.19454903     0.15000
H1164       H  0.96616484  0.37899684  0.06866993     0.14800
C1165       C  0.89652378  0.52361789  0.23681720    -0.18100
C1166       C  0.90129222  0.50546129  0.22001428    -0.20300
C1167       C  0.88871283  0.48217321  0.24272539     0.20400
C1168       C  0.87111390  0.47710394  0.28275526    -0.03200
C1169       C  0.86619548  0.49541911  0.29951668    -0.06300
C1170       C  0.87902427  0.51875189  0.27644117     0.20600
C1171       C  0.84860077  0.49044215  0.33953419     0.18800
C1172       C  0.83608129  0.46712494  0.36228605    -0.17800
C1173       C  0.84117083  0.44903912  0.34614428    -0.20000
C1174       C  0.85873327  0.45388162  0.30664404     0.20300
C1175       C  0.86460711  0.43615823  0.29157597    -0.33000
C1176       C  0.88235216  0.44124149  0.25220739     0.01000
C1177       C  0.89393022  0.46409545  0.22715411    -0.24300
C1178       C  0.87411862  0.53684790  0.29317379    -0.28900
C1179       C  0.85644067  0.53209787  0.33261380     0.06700
C1180       C  0.84383528  0.50884037  0.35592367    -0.27600
H1181       H  0.90653881  0.54149468  0.21879155     0.11400
H1182       H  0.91495500  0.50968790  0.18951845     0.12500
H1183       H  0.82247485  0.46292134  0.39289498     0.11600
H1184       H  0.83145655  0.43128280  0.36481033     0.10800
H1185       H  0.85577023  0.41858001  0.31124118     0.16200
H1186       H  0.90796826  0.46823830  0.19760438     0.12100
H1187       H  0.88408227  0.55472143  0.27505411     0.15000
H1188       H  0.83015471  0.50498053  0.38616851     0.14800
C1189       C  0.01864079  0.41968044  0.46236583    -0.18100
C1190       C  0.03880539  0.41968216  0.48457450    -0.20300
C1191       C  0.04570486  0.40308243  0.46677354     0.20400
C1192       C  0.03179616  0.38581741  0.42739211    -0.03200
C1193       C  0.01175074  0.38616757  0.40414510    -0.06300
C1194       C  0.00532748  0.40336487  0.42138417     0.20600
C1195       C  0.99877634  0.36999203  0.36221153     0.18800
C1196       C  0.00506837  0.35270105  0.34611095    -0.17800
C1197       C  0.02457394  0.35193918  0.37015986    -0.20000
C1198       C  0.03837419  0.36873322  0.41004738     0.20300
C1199       C  0.05899610  0.36921790  0.43188027    -0.33000
C1200       C  0.07349701  0.38715964  0.46920387     0.01000
C1201       C  0.06656204  0.40378893  0.48690685    -0.24300
C1202       C  0.98650205  0.40476482  0.39555054    -0.28900
C1203       C  0.97475806  0.38992820  0.35126061     0.06700
C1204       C  0.98053252  0.37218782  0.33554227    -0.27600
H1205       H  0.01380875  0.43282406  0.47634304     0.11400
H1206       H  0.04919922  0.43288695  0.51520154     0.12500
H1207       H  0.99516445  0.34003252  0.31424508     0.11600
H1208       H  0.02927405  0.33864106  0.35652587     0.10800
H1209       H  0.06424925  0.35627854  0.41852075     0.16200
H1210       H  0.07744522  0.41730664  0.51664058     0.12100
H1211       H  0.98228392  0.41867205  0.40721340     0.15000
H1212       H  0.97145358  0.36076340  0.30127833     0.14800
C1213       C  0.97280707  0.47579614  0.89353104    -0.18100
C1214       C  0.96031199  0.46030772  0.93647470    -0.20300
C1215       C  0.96744745  0.46775792  0.98953109     0.20400
C1216       C  0.98745907  0.49110143  0.99920805    -0.03200
C1217       C  0.00016458  0.50672897  0.95577000    -0.06300
C1218       C  0.99272979  0.49904396  0.90273328     0.20600
C1219       C  0.02021982  0.53005050  0.96545878     0.18800
C1220       C  0.02731794  0.53751845  0.01850277    -0.17800
C1221       C  0.01477907  0.52206104  0.06143971    -0.20000
C1222       C  0.99487793  0.49880404  0.05224805     0.20300
C1223       C  0.98255722  0.48301414  0.09514764    -0.33000
C1224       C  0.96283989  0.45946766  0.08606571     0.01000
C1225       C  0.95520116  0.45215679  0.03294378    -0.24300
C1226       C  0.00509267  0.51483820  0.85987359    -0.28900
C1227       C  0.02493231  0.53831936  0.86900445     0.06700
C1228       C  0.03256720  0.54561532  0.92208071    -0.27600
H1229       H  0.96684191  0.46958554  0.85303202     0.11400
H1230       H  0.94505691  0.44245833  0.92814736     0.12500
H1231       H  0.04258752  0.55535820  0.02682931     0.11600
H1232       H  0.02072591  0.52828728  0.10193622     0.10800
H1233       H  0.98865926  0.48894905  0.13573782     0.16200
H1234       H  0.94019967  0.43407043  0.02524625     0.12100
H1235       H  0.99898831  0.50894040  0.81926211     0.15000
H1236       H  0.04761346  0.56367946  0.92975474     0.14800
C1237       C  0.02613474  0.49207037  0.50836472    -0.18100
C1238       C  0.01981831  0.48245048  0.45682284    -0.20300
C1239       C  0.00081662  0.48289078  0.42931991     0.20400
C1240       C  0.98810307  0.49324258  0.45379733    -0.03200
C1241       C  0.99453508  0.50304283  0.50571388    -0.06300
C1242       C  0.01367889  0.50247545  0.53294896     0.20600
C1243       C  0.98213893  0.51380278  0.52992061     0.18800
C1244       C  0.96316893  0.51429281  0.50228412    -0.17800
C1245       C  0.95648498  0.50415752  0.45113367    -0.20000
C1246       C  0.96883128  0.49359574  0.42662362     0.20300
C1247       C  0.96162650  0.48248786  0.37639316    -0.33000
C1248       C  0.97342377  0.47101529  0.35313432     0.01000
C1249       C  0.99365467  0.47222174  0.37873130    -0.24300
C1250       C  0.02091031  0.51347893  0.58309952    -0.28900
C1251       C  0.00981303  0.52574216  0.60572249     0.06700
C1252       C  0.98975360  0.52495062  0.58010145    -0.27600
H1253       H  0.04097841  0.49165647  0.52873364     0.11400
H1254       H  0.02974054  0.47458780  0.43851638     0.12500
H1255       H  0.95357542  0.52261009  0.52013078     0.11600
H1256       H  0.94163190  0.50454909  0.43076458     0.10800
H1257       H  0.94593028  0.48150210  0.35681383     0.16200
H1258       H  0.00257630  0.46309564  0.36140314     0.12100
H1259       H  0.03645024  0.51412555  0.60270665     0.15000
H1260       H  0.98139385  0.53471287  0.59695472     0.14800
C1261       C  0.84750878  0.04181099  0.05264430    -0.18100
C1262       C  0.86578884  0.06522449  0.03828776    -0.20300
C1263       C  0.86529634  0.07518507  0.98829951     0.20400
C1264       C  0.84651047  0.06116205  0.95190136    -0.03200
C1265       C  0.82795359  0.03757714  0.96655977    -0.06300
C1266       C  0.82830098  0.02791972  0.01740908     0.20600
C1267       C  0.80877656  0.02391450  0.93077458     0.18800
C1268       C  0.80863338  0.03356719  0.88018489    -0.17800
C1269       C  0.82701826  0.05684462  0.86563258    -0.20000
C1270       C  0.84587272  0.07093506  0.90142795     0.20300
C1271       C  0.86359823  0.09487455  0.88829531    -0.33000
C1272       C  0.88182487  0.10940091  0.92525115     0.01000
C1273       C  0.88279650  0.09915766  0.97478026    -0.24300
C1274       C  0.80923033  0.00479986  0.03246938    -0.28900
C1275       C  0.78963480  0.99134810  0.99754221     0.06700
C1276       C  0.78982731  0.00103172  0.94646646    -0.27600
H1277       H  0.84819003  0.03472318  0.09172531     0.11400
H1278       H  0.88014336  0.07569725  0.06667937     0.12500
H1279       H  0.79408629  0.02323424  0.85209265     0.11600
H1280       H  0.82625016  0.06399485  0.82668458     0.10800
H1281       H  0.86256096  0.10251968  0.85018235     0.16200
H1282       H  0.89675536  0.11008884  0.00361049     0.12100
H1283       H  0.80938011  0.99754113  0.07171221     0.15000
H1284       H  0.77505399  0.99080708  0.91876978     0.14800
C1285       C  0.67812712  0.00490077  0.28350134    -0.18100
C1286       C  0.67763989  0.98480153  0.25923760    -0.20300
C1287       C  0.69355911  0.98801749  0.21701740     0.20400
C1288       C  0.70937433  0.01168957  0.19756515    -0.03200
C1289       C  0.70943874  0.03188625  0.22114362    -0.06300
C1290       C  0.69426908  0.02854061  0.26539953     0.20600
C1291       C  0.72548347  0.05551216  0.20192210     0.18800
C1292       C  0.74088924  0.05873360  0.15869915    -0.17800
C1293       C  0.74113570  0.03879573  0.13601491    -0.20000
C1294       C  0.72576679  0.01530434  0.15577842     0.20300
C1295       C  0.72697231  0.99546437  0.13534799    -0.33000
C1296       C  0.71169546  0.97191812  0.15517834     0.01000
C1297       C  0.69449852  0.96814795  0.19491843    -0.24300
C1298       C  0.69641238  0.04893858  0.29225997    -0.28900
C1299       C  0.71314470  0.07252710  0.27452743     0.06700
C1300       C  0.72681934  0.07560949  0.22801449    -0.27600
H1301       H  0.66621042  0.00198193  0.31713442     0.11400
H1302       H  0.66529194  0.96678620  0.27452378     0.12500
H1303       H  0.75326824  0.07675425  0.14346083     0.11600
H1304       H  0.75366752  0.04179932  0.10362085     0.10800
H1305       H  0.73985846  0.99832875  0.10379330     0.16200
H1306       H  0.68255899  0.94995546  0.20991161     0.12100
H1307       H  0.68579976  0.04652320  0.32807787     0.15000
H1308       H  0.73993484  0.09375032  0.21453425     0.14800
C1309       C  0.80205727  0.85539377  0.88991538    -0.18100
C1310       C  0.79668310  0.87333867  0.90585781    -0.20300
C1311       C  0.78554547  0.87169915  0.95550047     0.20400
C1312       C  0.78015601  0.85198415  0.98978915    -0.03200
C1313       C  0.78542965  0.83377340  0.97351318    -0.06300
C1314       C  0.79631376  0.83537187  0.92317708     0.20600
C1315       C  0.77943191  0.81377689  0.00731084     0.18800
C1316       C  0.76869885  0.81232385  0.05734141    -0.17800
C1317       C  0.76356790  0.83035265  0.07348947    -0.20000
C1318       C  0.76901545  0.85016047  0.03987038     0.20300
C1319       C  0.76287368  0.86775007  0.05484977    -0.33000
C1320       C  0.76735358  0.88702331  0.02009552     0.01000
C1321       C  0.77911434  0.88904215  0.97080951    -0.24300
C1322       C  0.80095307  0.81680693  0.90681578    -0.28900
C1323       C  0.79458980  0.79653021  0.94002699     0.06700
C1324       C  0.78398090  0.79539868  0.99039467    -0.27600
H1325       H  0.81045605  0.85703956  0.85123409     0.11400
H1326       H  0.80101317  0.88839710  0.87902539     0.12500
H1327       H  0.76404991  0.79708749  0.08385958     0.11600
H1328       H  0.75503315  0.82862746  0.11203669     0.10800
H1329       H  0.75370388  0.86586035  0.09263782     0.16200
H1330       H  0.78271007  0.90379100  0.94360209     0.12100
H1331       H  0.80915046  0.81796852  0.86808450     0.15000
H1332       H  0.77912819  0.78006434  0.01677072     0.14800
C1333       C  0.63408039  0.91696340  0.81978443    -0.18100
C1334       C  0.61352526  0.91644280  0.79827071    -0.20300
C1335       C  0.60382524  0.92966473  0.82238067     0.20400
C1336       C  0.61515812  0.94394219  0.86796183    -0.03200
C1337       C  0.63572969  0.94424414  0.89001604    -0.06300
C1338       C  0.64515365  0.93058659  0.86594708     0.20600
C1339       C  0.64634784  0.95754860  0.93714699     0.18800
C1340       C  0.63681683  0.97101543  0.96080998    -0.17800
C1341       C  0.61669903  0.97108724  0.93836202    -0.20000
C1342       C  0.60560130  0.95745842  0.89225551     0.20300
C1343       C  0.58487163  0.95672580  0.87056559    -0.33000
C1344       C  0.57319627  0.94194759  0.82625843     0.01000
C1345       C  0.58275857  0.92855242  0.80225627    -0.24300
C1346       C  0.66475245  0.92988237  0.88988006    -0.28900
C1347       C  0.67452569  0.94203820  0.93841438     0.06700
C1348       C  0.66563483  0.95631116  0.96107411    -0.27600
H1349       H  0.64101749  0.90630831  0.80096045     0.11400
H1350       H  0.60504378  0.90547170  0.76311920     0.12500
H1351       H  0.64476415  0.98128612  0.99706755     0.11600
H1352       H  0.60957263  0.98148783  0.95758671     0.10800
H1353       H  0.57738945  0.96699221  0.88898507     0.16200
H1354       H  0.57381838  0.91737393  0.76756579     0.12100
H1355       H  0.67121702  0.91846995  0.87282013     0.15000
H1356       H  0.67304925  0.96559712  0.99867390     0.14800
C1357       C  0.55271064  0.83427430  0.54737803    -0.18100
C1358       C  0.54842832  0.85274932  0.56379797    -0.20300
C1359       C  0.53610201  0.85057468  0.61185484     0.20400
C1360       C  0.52819129  0.82976959  0.64417054    -0.03200
C1361       C  0.53272733  0.81116459  0.62778935    -0.06300
C1362       C  0.54488627  0.81342115  0.57895271     0.20600
C1363       C  0.52528421  0.79045400  0.66029485     0.18800
C1364       C  0.51317579  0.78848779  0.70874141    -0.17800
C1365       C  0.50837260  0.80683220  0.72465255    -0.20000
C1366       C  0.51577165  0.82757580  0.69262909     0.20300
C1367       C  0.51091808  0.84610194  0.70779887    -0.33000
C1368       C  0.51859747  0.86678904  0.67513736     0.01000
C1369       C  0.53142594  0.86886266  0.62766737    -0.24300
C1370       C  0.54949349  0.79505570  0.56285133    -0.28900
C1371       C  0.54272772  0.77464168  0.59541941     0.06700
C1372       C  0.53048100  0.77235628  0.64407342    -0.27600
H1373       H  0.56222257  0.83633504  0.51002364     0.11400
H1374       H  0.55464800  0.86871052  0.53870169     0.12500
H1375       H  0.50738062  0.77273540  0.73430795     0.11600
H1376       H  0.49889836  0.80480438  0.76203964     0.10800
H1377       H  0.50118692  0.84440229  0.74464300     0.16200
H1378       H  0.53756803  0.88468745  0.60212528     0.12100
H1379       H  0.55931398  0.79718474  0.52589050     0.15000
H1380       H  0.52538244  0.75673337  0.66968196     0.14800
C1381       C  0.68096041  0.75114544  0.78334802    -0.18100
C1382       C  0.70109198  0.75091196  0.80507056    -0.20300
C1383       C  0.70876425  0.73535952  0.78429288     0.20400
C1384       C  0.69570674  0.71940284  0.74215719    -0.03200
C1385       C  0.67559949  0.71992485  0.71961120    -0.06300
C1386       C  0.66832944  0.73600101  0.74015315     0.20600
C1387       C  0.66337849  0.70506405  0.67529747     0.18800
C1388       C  0.67062605  0.68896235  0.65570176    -0.17800
C1389       C  0.69022942  0.68804330  0.67887916    -0.20000
C1390       C  0.70317435  0.70347348  0.72153539     0.20300
C1391       C  0.72379732  0.70375867  0.74304163    -0.33000
C1392       C  0.73741724  0.72041737  0.78341326     0.01000
C1393       C  0.72960371  0.73591208  0.80415946    -0.24300
C1394       C  0.64929539  0.73749701  0.71563043    -0.28900
C1395       C  0.63805445  0.72387539  0.66952211     0.06700
C1396       C  0.64483313  0.70733388  0.65011276    -0.27600
H1397       H  0.67564375  0.76362170  0.79945633     0.11400
H1398       H  0.71088747  0.76316585  0.83764989     0.12500
H1399       H  0.66135630  0.67732505  0.62189669     0.11600
H1400       H  0.69562701  0.67566663  0.66258828     0.10800
H1401       H  0.72974908  0.69173746  0.72715526     0.16200
H1402       H  0.73983205  0.74846873  0.83602265     0.12100
H1403       H  0.64438660  0.75053770  0.73018713     0.15000
H1404       H  0.63618809  0.69682522  0.61446942     0.14800
C1405       C  0.61788433  0.79345828  0.26330830    -0.18100
C1406       C  0.63110490  0.80842369  0.22018837    -0.20300
C1407       C  0.65163312  0.83130537  0.22912637     0.20400
C1408       C  0.65882228  0.83919940  0.28216535    -0.03200
C1409       C  0.64535986  0.82410555  0.32580699    -0.06300
C1410       C  0.62484277  0.80105611  0.31636808     0.20600
C1411       C  0.65261345  0.83197809  0.37881136     0.18800
C1412       C  0.67301891  0.85494043  0.38779234    -0.17800
C1413       C  0.68628612  0.86986120  0.34469161    -0.20000
C1414       C  0.67945169  0.86215156  0.29164346     0.20300
C1415       C  0.69268526  0.87709671  0.24804320    -0.33000
C1416       C  0.68543164  0.86958488  0.19481527     0.01000
C1417       C  0.66488948  0.84650164  0.18598519    -0.24300
C1418       C  0.61203267  0.78580087  0.35999010    -0.28900
C1419       C  0.61962495  0.79316274  0.41310934     0.06700
C1420       C  0.63973134  0.81656031  0.42188576    -0.27600
H1421       H  0.60224578  0.77585024  0.25510103     0.11400
H1422       H  0.62527273  0.80204875  0.17972168     0.12500
H1423       H  0.67885043  0.86131460  0.42826393     0.11600
H1424       H  0.70196585  0.88744218  0.35289620     0.10800
H1425       H  0.70819119  0.89488737  0.25561638     0.16200
H1426       H  0.65896040  0.84045576  0.14536565     0.12100
H1427       H  0.59678702  0.76784019  0.35247862     0.15000
H1428       H  0.64583984  0.82257613  0.46244046     0.14800
C1429       C  0.68693056  0.82450126  0.76629334    -0.18100
C1430       C  0.69387383  0.83415416  0.81760689    -0.20300
C1431       C  0.68031452  0.84246404  0.84554577     0.20400
C1432       C  0.65990736  0.84165018  0.82132948    -0.03200
C1433       C  0.65286703  0.83185611  0.76958208    -0.06300
C1434       C  0.66627116  0.82292915  0.74232452     0.20600
C1435       C  0.63192963  0.83014541  0.74599951     0.18800
C1436       C  0.61886707  0.83925812  0.77326701    -0.17800
C1437       C  0.62616469  0.84945478  0.82424950    -0.20000
C1438       C  0.64645112  0.85041181  0.84897173     0.20300
C1439       C  0.65395182  0.86055619  0.90015603    -0.33000
C1440       C  0.67471899  0.86199569  0.92370518     0.01000
C1441       C  0.68726105  0.85217380  0.89678636    -0.24300
C1442       C  0.65786641  0.81104973  0.69330343    -0.28900
C1443       C  0.63576379  0.80716513  0.67237015     0.06700
C1444       C  0.62359720  0.81794314  0.69722031    -0.27600
H1445       H  0.69736908  0.81771150  0.74590350     0.11400
H1446       H  0.70976807  0.83496156  0.83562339     0.12500
H1447       H  0.60277593  0.83813043  0.75554292     0.11600
H1448       H  0.61578912  0.85633066  0.84458531     0.10800
H1449       H  0.64453454  0.86859242  0.92012292     0.16200
H1450       H  0.70341102  0.85339338  0.91450963     0.12100
H1451       H  0.66720992  0.80267293  0.67444685     0.15000
H1452       H  0.60657325  0.81510944  0.68085238     0.14800
C1453       C  0.25882663  0.47433050  0.70921058    -0.18100
C1454       C  0.28218395  0.47972534  0.72462944    -0.20300
C1455       C  0.29606466  0.47352476  0.69144909     0.20400
C1456       C  0.28646143  0.46234052  0.64157604    -0.03200
C1457       C  0.26297191  0.45703820  0.62586793    -0.06300
C1458       C  0.24895859  0.46272581  0.66022178     0.20600
C1459       C  0.25327744  0.44542162  0.57643280     0.18800
C1460       C  0.26730873  0.43968760  0.54272040    -0.17800
C1461       C  0.29050998  0.44488009  0.55829857    -0.20000
C1462       C  0.30008714  0.45592175  0.60783220     0.20300
C1463       C  0.32288742  0.46020521  0.62447012    -0.33000
C1464       C  0.33251192  0.47085214  0.67455579     0.01000
C1465       C  0.31912534  0.47784346  0.70756379    -0.24300
C1466       C  0.22506929  0.45598315  0.64575973    -0.28900
C1467       C  0.21495493  0.44357860  0.59736935     0.06700
C1468       C  0.22944404  0.43896538  0.56233418    -0.27600
H1469       H  0.24832948  0.47890895  0.73600418     0.11400
H1470       H  0.28923371  0.48839766  0.76292086     0.12500
H1471       H  0.26017731  0.43080443  0.50465235     0.11600
H1472       H  0.30084683  0.43994046  0.53187929     0.10800
H1473       H  0.33307535  0.45497221  0.59828266     0.16200
H1474       H  0.32639955  0.48616345  0.74605529     0.12100
H1475       H  0.21409271  0.45971091  0.67306114     0.15000
H1476       H  0.22182049  0.42933341  0.52519703     0.14800
C1477       C  0.31570847  0.34728317  0.96395338    -0.18100
C1478       C  0.33592133  0.36701192  0.94051513    -0.20300
C1479       C  0.33313986  0.37888652  0.89593907     0.20400
C1480       C  0.30981488  0.37032954  0.87375490    -0.03200
C1481       C  0.28949509  0.35014002  0.89676144    -0.06300
C1482       C  0.29242806  0.33892575  0.94278845     0.20600
C1483       C  0.26614729  0.34181239  0.87502279     0.18800
C1484       C  0.26339010  0.35343430  0.82990812    -0.17800
C1485       C  0.28349462  0.37363010  0.80749391    -0.20000
C1486       C  0.30667574  0.38240109  0.82963190     0.20300
C1487       C  0.32668826  0.40336180  0.80924598    -0.33000
C1488       C  0.34986473  0.41211945  0.83159444     0.01000
C1489       C  0.35314117  0.39952323  0.87400523    -0.24300
C1490       C  0.27192832  0.32031353  0.96828394    -0.28900
C1491       C  0.24857533  0.31265536  0.94812904     0.06700
C1492       C  0.24585677  0.32282763  0.90038624    -0.27600
H1493       H  0.31823786  0.33880719  0.99920503     0.11400
H1494       H  0.35366789  0.37332534  0.95799817     0.12500
H1495       H  0.24559798  0.34729543  0.81281275     0.11600
H1496       H  0.28085219  0.38264141  0.77338429     0.10800
H1497       H  0.32428381  0.41291133  0.77583240     0.16200
H1498       H  0.37105748  0.40629504  0.89104589     0.12100
H1499       H  0.27403988  0.31246579  0.00511655     0.15000
H1500       H  0.22784241  0.31720354  0.88516094     0.14800
C1501       C  0.50940817  0.62967197  0.73717019    -0.18100
C1502       C  0.49176769  0.60643027  0.75395760    -0.20300
C1503       C  0.47180818  0.59187258  0.72112497     0.20400
C1504       C  0.46936629  0.60112084  0.67138726    -0.03200
C1505       C  0.48716454  0.62461049  0.65446116    -0.06300
C1506       C  0.50739854  0.63878345  0.68726721     0.20600
C1507       C  0.48494768  0.63369166  0.60428553     0.18800
C1508       C  0.46472517  0.61932666  0.57197935    -0.17800
C1509       C  0.44717269  0.59602322  0.58859583    -0.20000
C1510       C  0.44947665  0.58668054  0.63790140     0.20300
C1511       C  0.43263848  0.56288111  0.65344350    -0.33000
C1512       C  0.43536976  0.55313301  0.70199720     0.01000
C1513       C  0.45470473  0.56798874  0.73629646    -0.24300
C1514       C  0.52545926  0.66167227  0.66932897    -0.28900
C1515       C  0.52366795  0.67080634  0.61896767     0.06700
C1516       C  0.50314161  0.65678120  0.58696875    -0.27600
H1517       H  0.52480844  0.64041368  0.76296376     0.11400
H1518       H  0.49394258  0.59969605  0.79227751     0.12500
H1519       H  0.46264713  0.62598261  0.53347312     0.11600
H1520       H  0.43194337  0.58515798  0.56248273     0.10800
H1521       H  0.41776047  0.55166580  0.62677373     0.16200
H1522       H  0.45705558  0.56064609  0.77361939     0.12100
H1523       H  0.54103063  0.67236359  0.69475367     0.15000
H1524       H  0.50151103  0.66364127  0.54831082     0.14800
C1525       C  0.35120843  0.31890011  0.60882563    -0.18100
C1526       C  0.35141771  0.33900218  0.63223430    -0.20300
C1527       C  0.36552852  0.36230690  0.61015220     0.20400
C1528       C  0.37912478  0.36533107  0.56327635    -0.03200
C1529       C  0.37926059  0.34512453  0.54023003    -0.06300
C1530       C  0.36532408  0.32178225  0.56327736     0.20600
C1531       C  0.39393859  0.34842972  0.49514371     0.18800
C1532       C  0.40756522  0.37160202  0.47218747    -0.17800
C1533       C  0.40721392  0.39155643  0.49464417    -0.20000
C1534       C  0.39335162  0.38868862  0.54063065     0.20300
C1535       C  0.39442923  0.40891844  0.56585771    -0.33000
C1536       C  0.38209380  0.40620170  0.61435435     0.01000
C1537       C  0.36716956  0.38276718  0.63547554    -0.24300
C1538       C  0.36629170  0.30192468  0.54121022    -0.28900
C1539       C  0.38169510  0.30542808  0.49772910     0.06700
C1540       C  0.39521770  0.32863009  0.47459616    -0.27600
H1541       H  0.34040877  0.30116935  0.62706395     0.11400
H1542       H  0.34083572  0.33637560  0.66816879     0.12500
H1543       H  0.41882263  0.37436648  0.43735970     0.11600
H1544       H  0.41827273  0.40934439  0.47682599     0.10800
H1545       H  0.40626040  0.42694415  0.54982689     0.16200
H1546       H  0.35765681  0.38058359  0.67292481     0.12100
H1547       H  0.35586233  0.28402749  0.55899146     0.15000
H1548       H  0.40684123  0.33125107  0.44047682     0.14800
C1549       C  0.69417571  0.54552437  0.40385247    -0.18100
C1550       C  0.71717614  0.54966961  0.41804438    -0.20300
C1551       C  0.73177100  0.54671705  0.38021104     0.20400
C1552       C  0.72291346  0.53901174  0.32781704    -0.03200
C1553       C  0.69963179  0.53472132  0.31353516    -0.06300
C1554       C  0.68537566  0.53828053  0.35164992     0.20600
C1555       C  0.69081396  0.52730991  0.26096918     0.18800
C1556       C  0.70534243  0.52408441  0.22334253    -0.17800
C1557       C  0.72852496  0.52853631  0.23738543    -0.20000
C1558       C  0.73752905  0.53617678  0.28937581     0.20300
C1559       C  0.76115464  0.54178731  0.30313380    -0.33000
C1560       C  0.77041938  0.55034358  0.35477636     0.01000
C1561       C  0.75535991  0.55214581  0.39342511    -0.24300
C1562       C  0.66266403  0.53482068  0.33684602    -0.28900
C1563       C  0.65374168  0.52760504  0.28452495     0.06700
C1564       C  0.66779316  0.52358834  0.24688291    -0.27600
H1565       H  0.68335671  0.54822929  0.43359016     0.11400
H1566       H  0.72370359  0.55555819  0.45841240     0.12500
H1567       H  0.69889441  0.51840066  0.18284875     0.11600
H1568       H  0.73952694  0.52626733  0.20738126     0.10800
H1569       H  0.77261595  0.54034565  0.27296885     0.16200
H1570       H  0.76232831  0.55877881  0.43320598     0.12100
H1571       H  0.65186003  0.53770717  0.36634141     0.15000
H1572       H  0.66103219  0.51804283  0.20650545     0.14800
C1573       C  0.64533832  0.62730917  0.01492825    -0.18100
C1574       C  0.66508002  0.64673425  0.98940421    -0.20300
C1575       C  0.68865499  0.65592812  0.00957693     0.20400
C1576       C  0.69236537  0.64577216  0.05650497    -0.03200
C1577       C  0.67254830  0.62586022  0.08154085    -0.06300
C1578       C  0.64890178  0.61655127  0.06058725     0.20600
C1579       C  0.67650018  0.61486124  0.12664547     0.18800
C1580       C  0.69998850  0.62434609  0.14753100    -0.17800
C1581       C  0.71957862  0.64432004  0.12320169    -0.20000
C1582       C  0.71598667  0.65493750  0.07733823     0.20300
C1583       C  0.73573815  0.67380421  0.05053269    -0.33000
C1584       C  0.73229018  0.68299188  0.00211741     0.01000
C1585       C  0.70869189  0.67438672  0.98244341    -0.24300
C1586       C  0.62936542  0.59631497  0.08495051    -0.28900
C1587       C  0.63345308  0.58485548  0.12853654     0.06700
C1588       C  0.65695894  0.59426582  0.14941031    -0.27600
H1589       H  0.62733746  0.62038036  0.99831595     0.11400
H1590       H  0.66194584  0.65436913  0.95346481     0.12500
H1591       H  0.70324942  0.61612564  0.18229144     0.11600
H1592       H  0.73761717  0.65111022  0.13951978     0.10800
H1593       H  0.75395779  0.68012757  0.06534747     0.16200
H1594       H  0.70604091  0.68143738  0.94499367     0.12100
H1595       H  0.61118587  0.58895745  0.06896738     0.15000
H1596       H  0.65997690  0.58552555  0.18359643     0.14800
C1597       C  0.47177104  0.37291006  0.23308385    -0.18100
C1598       C  0.49000850  0.39592826  0.21712436    -0.18500
C1599       C  0.51058389  0.40913320  0.24921147     0.20400
C1600       C  0.51278911  0.39909246  0.29801326    -0.03200
C1601       C  0.49441504  0.37576606  0.31400561    -0.06300
C1602       C  0.47387575  0.36269887  0.28127141     0.20600
C1603       C  0.49658638  0.36553889  0.36259842     0.18800
C1604       C  0.51705150  0.37896317  0.39501965    -0.17800
C1605       C  0.53518173  0.40222131  0.37940870    -0.20000
C1606       C  0.53323574  0.41240646  0.33094628     0.20300
C1607       C  0.55114859  0.43580255  0.31521006    -0.33000
C1608       C  0.54893392  0.44599100  0.26679446     0.01000
C1609       C  0.52874704  0.43237840  0.23373674    -0.24300
C1610       C  0.45579598  0.33954812  0.29694870    -0.28900
C1611       C  0.45787337  0.32890302  0.34475756     0.06700
C1612       C  0.47831457  0.34207552  0.37763247    -0.27600
H1613       H  0.45603436  0.36304539  0.20761842     0.11400
H1614       H  0.48798123  0.40343608  0.17972930     0.12500
H1615       H  0.51903235  0.37148589  0.43249651     0.11600
H1616       H  0.55074345  0.41224661  0.40525140     0.10800
H1617       H  0.56658833  0.44624924  0.34114736     0.16200
H1618       H  0.52670157  0.44021629  0.19682897     0.12100
H1619       H  0.44015201  0.32966702  0.27120036     0.15000
H1620       H  0.48001594  0.33410124  0.41465786     0.14800
C1621       C  0.57369851  0.60570756  0.46147835    -0.18100
C1622       C  0.57208915  0.62537260  0.48141351    -0.20300
C1623       C  0.58595218  0.64853117  0.45862849     0.20400
C1624       C  0.60196205  0.65211273  0.41603322    -0.03200
C1625       C  0.60337298  0.63220655  0.39550449    -0.06300
C1626       C  0.58907033  0.60888284  0.41819730     0.20600
C1627       C  0.61842005  0.63548418  0.35109137     0.18800
C1628       C  0.63256381  0.65874840  0.32890543    -0.17800
C1629       C  0.63154925  0.67859961  0.35000631    -0.20000
C1630       C  0.61612723  0.67544790  0.39318849     0.20300
C1631       C  0.61431096  0.69508788  0.41343396    -0.33000
C1632       C  0.59788416  0.69136030  0.45483980     0.01000
C1633       C  0.58384938  0.66810988  0.47727266    -0.24300
C1634       C  0.58942757  0.58892485  0.39550712    -0.28900
C1635       C  0.60319614  0.59186141  0.34925847     0.06700
C1636       C  0.61815304  0.61525183  0.32812469    -0.27600
H1637       H  0.56253785  0.58792090  0.47914495     0.11400
H1638       H  0.55978480  0.62240761  0.51431506     0.12500
H1639       H  0.64420223  0.66154518  0.29475808     0.11600
H1640       H  0.64250240  0.69633480  0.33195754     0.10800
H1641       H  0.62514830  0.71305532  0.39626079     0.16200
H1642       H  0.57145099  0.66533839  0.50989596     0.12100
H1643       H  0.57750043  0.57086559  0.41122967     0.15000
H1644       H  0.62866587  0.61750866  0.29219663     0.14800
C1645       C  0.50362453  0.47844256  0.91289020    -0.18100
C1646       C  0.51912926  0.48229351  0.95619351    -0.20300
C1647       C  0.51707432  0.49299442  0.00351833     0.20400
C1648       C  0.49902258  0.49969455  0.00726951    -0.03200
C1649       C  0.48336699  0.49584624  0.96341769    -0.06300
C1650       C  0.48578810  0.48526517  0.91600204     0.20600
C1651       C  0.46535519  0.50260958  0.96700299     0.18800
C1652       C  0.46322623  0.51319181  0.01449832    -0.17800
C1653       C  0.47875803  0.51705858  0.05785262    -0.20000
C1654       C  0.49669940  0.51036566  0.05465379     0.20300
C1655       C  0.51248406  0.51437128  0.09778772    -0.33000
C1656       C  0.53082743  0.50808751  0.09423991     0.01000
C1657       C  0.53288831  0.49730507  0.04685552    -0.24300
C1658       C  0.47033347  0.48161812  0.87250462    -0.28900
C1659       C  0.45219021  0.48817842  0.87547832     0.06700
C1660       C  0.44980431  0.49862771  0.92315673    -0.27600
H1661       H  0.50565474  0.47019105  0.87680126     0.11400
H1662       H  0.53280945  0.47697190  0.95256643     0.12500
H1663       H  0.44955615  0.51852689  0.01811253     0.11600
H1664       H  0.47674872  0.52533148  0.09393030     0.10800
H1665       H  0.51076513  0.52287688  0.13381360     0.16200
H1666       H  0.54691518  0.49243460  0.04351228     0.12100
H1667       H  0.47226483  0.47329176  0.83640858     0.15000
H1668       H  0.43586756  0.50363415  0.92617375     0.14800
C1669       C  0.50645280  0.54220606  0.45947244    -0.18100
C1670       C  0.49614368  0.53835653  0.51048063    -0.20300
C1671       C  0.48666913  0.51560162  0.53547379     0.20400
C1672       C  0.48741071  0.49644799  0.50891811    -0.03200
C1673       C  0.49770997  0.50030357  0.45735669    -0.06300
C1674       C  0.50742053  0.52334912  0.43267644     0.20600
C1675       C  0.49868706  0.48124173  0.43095523     0.18800
C1676       C  0.48900953  0.45841635  0.45577875    -0.17800
C1677       C  0.47848232  0.45449839  0.50663915    -0.20000
C1678       C  0.47765033  0.47340337  0.53363261     0.20300
C1679       C  0.46630987  0.46941323  0.58381069    -0.33000
C1680       C  0.46443125  0.48813629  0.60906135     0.01000
C1681       C  0.47555756  0.51141178  0.58563696    -0.24300
C1682       C  0.51900968  0.52748984  0.38287556    -0.28900
C1683       C  0.52145494  0.50902307  0.35816983     0.06700
C1684       C  0.51033494  0.48567040  0.38130577    -0.27600
H1685       H  0.51389019  0.55999476  0.44121051     0.11400
H1686       H  0.49552132  0.55318196  0.53035331     0.12500
H1687       H  0.48970666  0.44362124  0.43596725     0.11600
H1688       H  0.47094794  0.43667814  0.52480670     0.10800
H1689       H  0.45739317  0.45133988  0.60114526     0.16200
H1690       H  0.47408962  0.52591916  0.60485833     0.12100
H1691       H  0.52783754  0.54558048  0.36564448     0.15000
H1692       H  0.51218904  0.47134066  0.36234477     0.14800
loop_ 
_geom_bond_atom_site_label_1 
_geom_bond_atom_site_label_2 
_geom_bond_distance 
_geom_bond_site_symmetry_2 
_ccdc_geom_bond_type 
O1          Cr19   1.983       .  S
O1            C9   1.263       .  A
O2          Cr19   2.034       .  S
O2            C3   1.272       .  A
C3            O4   1.258       .  A
C3         C1656   1.491       .  S
O4          Cr20   1.967       .  S
O5          Cr20   2.036       .  S
O5            C6   1.273       .  A
C6            O7   1.254       .  A
C6         C1683   1.472       .  S
O7          Cr21   1.949       .  S
O8          Cr21   2.003       .  S
O8            C9   1.264       .  A
C9         C1608   1.478       .  S
O10         Cr19   2.033       .  S
O10          C18   1.273       .  A
O11         Cr19   1.962       .  S
O11          C12   1.259       .  A
C12          O13   1.269       .  A
C12        C1587   1.467       .  S
O13         Cr20   2.017       .  S
O14         Cr20   1.965       .  S
O14          C15   1.254       .  A
C15          O16   1.266       .  A
C15        C1635   1.472       .  S
O16         Cr21   2.023       .  S
O17         Cr21   1.957       .  S
O17          C18   1.260       .  A
C18        C1563   1.479       .  S
Cr19         O22   1.761       .  S
Cr20         O22   1.762       .  S
Cr21         O22   1.759       .  S
O23         Cr41   2.041       .  S
O23          C31   1.275       .  A
O24         Cr41   1.966       .  S
O24          C25   1.260       .  A
C25          O26   1.268       .  A
C25        C1488   1.470       .  S
O26         Cr42   2.016       .  S
O27         Cr42   1.969       .  S
O27          C28   1.255       .  A
C28          O29   1.268       .  A
C28        C1536   1.479       .  S
O29         Cr43   2.028       .  S
O30         Cr43   1.955       .  S
O30          C31   1.259       .  A
C31        C1464   1.486       .  S
O32         Cr41   1.993       .  S
O32          C40   1.264       .  A
O33         Cr41   2.039       .  S
O33          C34   1.273       .  A
C34          O35   1.260       .  A
C34        C1659   1.493       .  S
O35         Cr42   1.968       .  S
O36         Cr42   2.038       .  S
O36          C37   1.272       .  A
C37          O38   1.254       .  A
C37        C1680   1.473       .  S
O38         Cr43   1.947       .  S
O39         Cr43   2.006       .  S
O39          C40   1.266       .  A
C40        C1512   1.485       .  S
Cr41         O44   1.764       .  S
Cr42         O44   1.765       .  S
Cr43         O44   1.755       .  S
O45         Cr63   1.985       .  S
O45          C53   1.264       .  A
O46         Cr63   2.051       .  S
O46          C47   1.275       .  A
C47          O48   1.257       .  A
C47        C1419   1.498       .  S
O48         Cr64   1.969       .  S
O49         Cr64   2.027       .  S
O49          C50   1.272       .  A
C50          O51   1.254       .  A
C50        C1443   1.470       .  S
O51         Cr65   1.952       .  S
O52         Cr65   2.003       .  S
O52          C53   1.263       .  A
C53        C1371   1.478       .  S
O54         Cr63   2.046       .  S
O54          C62   1.277       .  A
O55         Cr63   1.961       .  S
O55          C56   1.259       .  A
C56          O57   1.269       .  A
C56        C1632   1.470       .  S
O57         Cr64   2.018       .  S
O58         Cr64   1.974       .  S
O58          C59   1.256       .  A
C59          O60   1.267       .  A
C59        C1395   1.476       .  S
O60         Cr65   2.021       .  S
O61         Cr65   1.957       .  S
O61          C62   1.259       .  A
C62        C1515   1.487       .  S
Cr63         O66   1.762       .  S
Cr64         O66   1.762       .  S
Cr65         O66   1.760       .  S
O67         Cr85   2.048       .  S
O67          C75   1.276       .  A
O68         Cr85   1.972       .  S
O68          C69   1.262       .  A
C69          O70   1.268       .  A
C69        C1296   1.475       .  S
O70         Cr86   2.018       .  S
O71         Cr86   1.965       .  S
O71          C72   1.255   1_554  A
C72          O73   1.268       .  A
C72        C1347   1.475       .  S
O73         Cr87   2.026       .  S
O74         Cr87   1.961       .  S
O74          C75   1.259   1_556  A
C75        C1275   1.492   1_554  S
O76         Cr85   1.999       .  S
O76          C84   1.267       .  A
O77         Cr85   2.047       .  S
O77          C78   1.275       .  A
C78          O79   1.260       .  A
C78        C1416   1.498       .  S
O79         Cr86   1.975       .  S
O80         Cr86   2.034   1_556  S
O80          C81   1.270       .  A
C81          O82   1.253       .  A
C81        C1440   1.472       .  S
O82         Cr87   1.947       .  S
O83         Cr87   2.010       .  S
O83          C84   1.266   1_556  A
C84        C1320   1.491       .  S
Cr85         O88   1.761       .  S
Cr86         O88   1.768       .  S
Cr87         O88   1.759   1_556  S
O89        Cr107   1.986       .  S
O89          C97   1.263       .  A
O90        Cr107   2.039       .  S
O90          C91   1.273       .  A
C91          O92   1.260       .  A
C91        C1224   1.494       .  S
O92        Cr108   1.975       .  S
O93        Cr108   2.024       .  S
O93          C94   1.270       .  A
C94          O95   1.255       .  A
C94        C1248   1.471       .  S
O95        Cr109   1.959       .  S
O96        Cr109   2.005       .  S
O96          C97   1.264       .  A
C97        C1176   1.475       .  S
O98        Cr107   2.036       .  S
O98         C106   1.274       .  A
O99        Cr107   1.966       .  S
O99         C100   1.260       .  A
C100        O101   1.267       .  A
C100       C1155   1.468       .  S
O101       Cr108   2.016       .  S
O102       Cr108   1.970       .  S
O102        C103   1.257       .  A
C103        O104   1.267       .  A
C103       C1203   1.471       .  S
O104       Cr109   2.021       .  S
O105       Cr109   1.962       .  S
O105        C106   1.259       .  A
C106       C1131   1.482       .  S
Cr107       O110   1.761       .  S
Cr108       O110   1.763       .  S
Cr109       O110   1.763       .  S
O111       Cr129   2.036       .  S
O111        C119   1.275       .  A
O112       Cr129   1.968       .  S
O112        C113   1.259       .  A
C113        O114   1.268       .  A
C113       C1056   1.472       .  S
O114       Cr130   2.017       .  S
O115       Cr130   1.969       .  S
O115        C116   1.256       .  A
C116        O117   1.268       .  A
C116       C1104   1.478       .  S
O117       Cr131   2.026       .  S
O118       Cr131   1.959       .  S
O118        C119   1.260       .  A
C119       C1035   1.481       .  S
O120       Cr129   1.994       .  S
O120        C128   1.264       .  A
O121       Cr129   2.042       .  S
O121        C122   1.274       .  A
C122        O123   1.258       .  A
C122       C1227   1.493       .  S
O123       Cr130   1.970       .  S
O124       Cr130   2.029       .  S
O124        C125   1.270       .  A
C125        O126   1.255       .  A
C125       C1251   1.471       .  S
O126       Cr131   1.953       .  S
O127       Cr131   2.001       .  S
O127        C128   1.265       .  A
C128       C1080   1.485       .  S
Cr129       O132   1.764       .  S
Cr130       O132   1.764       .  S
Cr131       O132   1.758       .  S
O133       Cr151   1.996       .  S
O133        C141   1.265       .  A
O134       Cr151   2.049       .  S
O134        C135   1.275       .  A
C135        O136   1.261       .  A
C135        C987   1.501       .  S
O136       Cr152   1.977       .  S
O137       Cr152   2.040       .  S
O137        C138   1.273       .  A
C138        O139   1.257       .  A
C138       C1008   1.479   1_556  S
O139       Cr153   1.958       .  S
O140       Cr153   1.998       .  S
O140        C141   1.263       .  A
C141        C963   1.485       .  S
O142       Cr151   2.052       .  S
O142        C150   1.277       .  A
O143       Cr151   1.967       .  S
O143        C144   1.260       .  A
C144        O145   1.270       .  A
C144       C1392   1.477       .  S
O145       Cr152   2.024       .  S
O146       Cr152   1.970       .  S
O146        C147   1.256       .  A
C147        O148   1.264       .  A
C147       C1584   1.470   1_556  S
O148       Cr153   2.010       .  S
O149       Cr153   1.960       .  S
O149        C150   1.259       .  A
C150       C1323   1.494       .  S
Cr151       O154   1.765       .  S
Cr152       O154   1.766       .  S
Cr153       O154   1.760       .  S
O155       Cr173   2.042       .  S
O155        C163   1.275       .  A
O156       Cr173   1.962       .  S
O156        C157   1.258       .  A
C157        O158   1.271       .  A
C157       C1107   1.475       .  S
O158       Cr174   2.029       .  S
O159       Cr174   1.970       .  S
O159        C160   1.255       .  A
C160        O161   1.265       .  A
C160        C936   1.472       .  S
O161       Cr175   2.018       .  S
O162       Cr175   1.954       .  S
O162        C163   1.258       .  A
C163       C1179   1.484       .  S
O164       Cr173   1.982       .  S
O164        C172   1.263       .  A
O165       Cr173   2.048       .  S
O165        C166   1.275       .  A
C166        O167   1.260       .  A
C166        C984   1.500       .  S
O167       Cr174   1.975       .  S
O168       Cr174   2.044       .  S
O168        C169   1.275       .  A
C169        O170   1.255       .  A
C169       C1011   1.479       .  S
O170       Cr175   1.956       .  S
O171       Cr175   2.004       .  S
O171        C172   1.265       .  A
C172       C1560   1.480       .  S
Cr173       O176   1.764       .  S
Cr174       O176   1.761       .  S
Cr175       O176   1.760       .  S
O177       Cr195   2.047       .  S
O177        C185   1.277       .  A
O178       Cr195   1.973       .  S
O178        C179   1.261       .  A
C179        O180   1.267       .  A
C179        C867   1.474       .  S
O180       Cr196   2.013       .  S
O181       Cr196   1.979       .  S
O181        C182   1.257       .  A
C182        O183   1.265       .  A
C182       C1299   1.476       .  S
O183       Cr197   2.015       .  S
O184       Cr197   1.959       .  S
O184        C185   1.260       .  A
C185        C840   1.491       .  S
O186       Cr195   2.001       .  S
O186        C194   1.265       .  A
O187       Cr195   2.046       .  S
O187        C188   1.275       .  A
C188        O189   1.260       .  A
C188        C891   1.501       .  S
O189       Cr196   1.973       .  S
O190       Cr196   2.029       .  S
O190        C191   1.271       .  A
C191        O192   1.255       .  A
C191        C912   1.469       .  S
O192       Cr197   1.953       .  S
O193       Cr197   1.998       .  S
O193        C194   1.263       .  A
C194       C1128   1.488       .  S
Cr195       O198   1.765       .  S
Cr196       O198   1.767       .  S
Cr197       O198   1.759       .  S
O199       Cr217   1.994       .  S
O199        C207   1.264       .  A
O200       Cr217   2.046       .  S
O200        C201   1.275       .  A
C201        O202   1.261       .  A
C201        C888   1.501       .  S
O202       Cr218   1.974       .  S
O203       Cr218   2.034       .  S
O203        C204   1.272       .  A
C204        O205   1.254       .  A
C204        C915   1.470   1_556  S
O205       Cr219   1.950       .  S
O206       Cr219   2.011       .  S
O206        C207   1.266       .  A
C207       C1272   1.490       .  S
O208       Cr217   2.048       .  S
O208        C216   1.277       .  A
O209       Cr217   1.963       .  S
O209        C210   1.259       .  A
C210        O211   1.267       .  A
C210        C816   1.472       .  S
O211       Cr218   2.014       .  S
O212       Cr218   1.969       .  S
O212        C213   1.256       .  A
C213        O214   1.267   1_556  A
C213       C1152   1.477   1_556  S
O214       Cr219   2.024   1_554  S
O215       Cr219   1.953       .  S
O215        C216   1.257       .  A
C216        C792   1.490       .  S
Cr217       O220   1.763       .  S
Cr218       O220   1.766       .  S
Cr219       O220   1.759       .  S
O221       Cr239   1.994       .  S
O221        C229   1.264       .  A
O222       Cr239   2.044       .  S
O222        C223   1.276       .  A
C223        O224   1.259       .  A
C223        C747   1.498       .  S
O224       Cr240   1.970       .  S
O225       Cr240   2.029       .  S
O225        C226   1.272       .  A
C226        O227   1.255       .  A
C226        C768   1.469       .  S
O227       Cr241   1.949       .  S
O228       Cr241   2.001       .  S
O228        C229   1.263       .  A
C229       C1467   1.484       .  S
O230       Cr239   2.043       .  S
O230        C238   1.277       .  A
O231       Cr239   1.966       .  S
O231        C232   1.259       .  A
C232        O233   1.267       .  A
C232       C1200   1.473       .  S
O233       Cr240   2.015       .  S
O234       Cr240   1.973       .  S
O234        C235   1.255       .  A
C235        O236   1.265       .  A
C235        C819   1.469       .  S
O236       Cr241   2.015       .  S
O237       Cr241   1.950       .  S
O237        C238   1.257       .  A
C238       C1083   1.482       .  S
Cr239       O242   1.759       .  S
Cr240       O242   1.766       .  S
Cr241       O242   1.760       .  S
O243       Cr261   2.044       .  S
O243        C251   1.276       .  A
O244       Cr261   1.983       .  S
O244        C245   1.263       .  A
C245        O246   1.267       .  A
C245        C720   1.471       .  S
O246       Cr262   2.012       .  S
O247       Cr262   1.969       .  S
O247        C248   1.257   1_554  A
C248        O249   1.266       .  A
C248       C1491   1.473       .  S
O249       Cr263   2.019       .  S
O250       Cr263   1.956       .  S
O250        C251   1.259   1_556  A
C251        C699   1.486       .  S
O252       Cr261   2.001       .  S
O252        C260   1.266       .  A
O253       Cr261   2.050       .  S
O253        C254   1.275       .  A
C254        O255   1.258       .  A
C254        C744   1.498       .  S
O255       Cr262   1.965       .  S
O256       Cr262   2.024       .  S
O256        C257   1.270   1_554  A
C257        O258   1.253       .  A
C257        C771   1.467       .  S
O258       Cr263   1.950       .  S
O259       Cr263   1.998   1_554  S
O259        C260   1.263       .  A
C260        C795   1.485       .  S
Cr261       O264   1.761       .  S
Cr262       O264   1.761       .  S
Cr263       O264   1.758   1_556  S
O265       Cr283   2.000       .  S
O265        C273   1.265       .  A
O266       Cr283   2.040       .  S
O266        C267   1.273       .  A
C267        O268   1.259       .  A
C267        C648   1.495       .  S
O268       Cr284   1.969       .  S
O269       Cr284   2.033       .  S
O269        C270   1.272       .  A
C270        O271   1.255       .  A
C270        C675   1.471       .  S
O271       Cr285   1.951       .  S
O272       Cr285   1.998       .  S
O272        C273   1.264       .  A
C273       C1032   1.487       .  S
O274       Cr283   2.041       .  S
O274        C282   1.275       .  A
O275       Cr283   1.970       .  S
O275        C276   1.261       .  A
C276        O277   1.268       .  A
C276        C600   1.475       .  S
O277       Cr284   2.018       .  S
O278       Cr284   1.972       .  S
O278        C279   1.256       .  A
C279        O280   1.266       .  A
C279        C624   1.476       .  S
O280       Cr285   2.018       .  S
O281       Cr285   1.956       .  S
O281        C282   1.259       .  A
C282        C579   1.483       .  S
Cr283       O286   1.765       .  S
Cr284       O286   1.766       .  S
Cr285       O286   1.757       .  S
O287       Cr305   2.042       .  S
O287        C295   1.276       .  A
O288       Cr305   1.965       .  S
O288        C289   1.259       .  A
C289        O290   1.268       .  A
C289        C939   1.471       .  S
O290       Cr306   2.018       .  S
O291       Cr306   1.967       .  S
O291        C292   1.255   1_554  A
C292        O293   1.267       .  A
C292       C1059   1.474       .  S
O293       Cr307   2.023       .  S
O294       Cr307   1.955       .  S
O294        C295   1.259   1_556  A
C295        C960   1.484   1_454  S
O296       Cr305   1.990       .  S
O296        C304   1.264       .  A
O297       Cr305   2.043       .  S
O297        C298   1.274       .  A
C298        O299   1.259       .  A
C298        C651   1.495       .  S
O299       Cr306   1.966       .  S
O300       Cr306   2.033   1_556  S
O300        C301   1.272       .  A
C301        O302   1.254       .  A
C301        C672   1.471       .  S
O302       Cr307   1.951       .  S
O303       Cr307   2.003       .  S
O303        C304   1.264   1_556  A
C304        C552   1.483       .  S
Cr305       O308   1.763       .  S
Cr306       O308   1.762       .  S
Cr307       O308   1.758   1_556  S
O309       Cr327   1.999       .  S
O309        C317   1.266       .  A
O310       Cr327   2.034       .  S
O310        C311   1.271       .  A
C311        O312   1.260       .  A
C311        C507   1.491       .  S
O312       Cr328   1.974       .  S
O313       Cr328   2.032       .  S
O313        C314   1.270       .  A
C314        O315   1.253       .  A
C314        C531   1.470       .  S
O315       Cr329   1.949       .  S
O316       Cr329   2.005       .  S
O316        C317   1.265       .  A
C317        C843   1.489       .  S
O318       Cr327   2.029       .  S
O318        C326   1.273       .  A
O319       Cr327   1.975       .  S
O319        C320   1.261       .  A
C320        O321   1.269       .  A
C320        C480   1.475       .  S
O321       Cr328   2.017       .  S
O322       Cr328   1.973       .  S
O322        C323   1.257       .  A
C323        O324   1.268       .  A
C323        C603   1.477       .  S
O324       Cr329   2.024       .  S
O325       Cr329   1.958       .  S
O325        C326   1.259       .  A
C326        C456   1.477       .  S
Cr327       O330   1.762       .  S
Cr328       O330   1.766       .  S
Cr329       O330   1.758       .  S
O331       Cr349   2.038       .  S
O331        C339   1.274       .  A
O332       Cr349   1.964       .  S
O332        C333   1.259       .  A
C333        O334   1.268       .  A
C333       C1344   1.468       .  S
O334       Cr350   2.017       .  S
O335       Cr350   1.974       .  S
O335        C336   1.255       .  A
C336        O337   1.265       .  A
C336        C864   1.475       .  S
O337       Cr351   2.020       .  S
O338       Cr351   1.953       .  S
O338        C339   1.259       .  A
C339       C1368   1.484       .  S
O340       Cr349   1.996       .  S
O340        C348   1.265       .  A
O341       Cr349   2.037       .  S
O341        C342   1.273       .  A
C342        O343   1.258       .  A
C342        C504   1.491       .  S
O343       Cr350   1.969       .  S
O344       Cr350   2.029       .  S
O344        C345   1.273       .  A
C345        O346   1.256       .  A
C345        C528   1.470       .  S
O346       Cr351   1.952       .  S
O347       Cr351   2.001       .  S
O347        C348   1.264       .  A
C348        C576   1.486       .  S
Cr349       O352   1.765       .  S
Cr350       O352   1.762       .  S
Cr351       O352   1.757       .  S
O353       Cr371   2.035       .  S
O353        C361   1.273       .  A
O354       Cr371   1.964       .  S
O354        C355   1.259       .  A
C355        O356   1.270       .  A
C355       C1539   1.474       .  S
O356       Cr372   2.025       .  S
O357       Cr372   1.963       .  S
O357        C358   1.255       .  A
C358        O359   1.268       .  A
C358        C723   1.480       .  S
O359       Cr373   2.028       .  S
O360       Cr373   1.953       .  S
O360        C361   1.258       .  A
C361       C1611   1.482       .  S
O362       Cr371   1.986       .  S
O362        C370   1.264       .  A
O363       Cr371   2.039       .  S
O363        C364   1.273       .  A
C364        O365   1.258       .  A
C364        C408   1.492       .  S
O365       Cr372   1.967       .  S
O366       Cr372   2.033       .  S
O366        C367   1.273       .  A
C367        O368   1.255       .  A
C367        C432   1.475       .  S
O368       Cr373   1.957       .  S
O369       Cr373   2.006       .  S
O369        C370   1.267       .  A
C370        C459   1.483       .  S
Cr371       O374   1.766       .  S
Cr372       O374   1.760       .  S
Cr373       O374   1.758       .  S
O375       Cr393   1.987       .  S
O375        C383   1.264       .  A
O376       Cr393   2.039       .  S
O376        C377   1.273       .  A
C377        O378   1.260       .  A
C377        C411   1.492       .  S
O378       Cr394   1.969       .  S
O379       Cr394   2.031       .  S
O379        C380   1.271       .  A
C380        O381   1.257       .  A
C380        C435   1.477   1_556  S
O381       Cr395   1.960       .  S
O382       Cr395   2.010       .  S
O382        C383   1.267       .  A
C383        C696   1.483       .  S
O384       Cr393   2.034       .  S
O384        C392   1.273       .  A
O385       Cr393   1.969       .  S
O385        C386   1.259       .  A
C386        O387   1.267       .  A
C386        C627   1.472       .  S
O387       Cr394   2.019       .  S
O388       Cr394   1.968       .  S
O388        C389   1.256       .  A
C389        O390   1.268       .  A
C389        C483   1.475   1_556  S
O390       Cr395   2.024       .  S
O391       Cr395   1.957       .  S
O391        C392   1.258       .  A
C392        C555   1.483       .  S
Cr393       O396   1.765       .  S
Cr394       O396   1.764       .  S
Cr395       O396   1.760       .  S
C397        C398   1.401       .  A
C397        C402   1.404       .  A
C397        H413   1.083       .  S
C398        C399   1.405       .  A
C398        H414   1.084       .  S
C399        C409   1.406       .  A
C399        C400   1.409       .  A
C400        C406   1.413       .  A
C400        C401   1.416       .  A
C401        C403   1.409       .  A
C401        C402   1.413       .  A
C402        C410   1.410       .  A
C403        C412   1.404       .  A
C403        C404   1.404       .  A
C404        C405   1.400       .  A
C404        H415   1.084       .  S
C405        C406   1.404       .  A
C405        H416   1.083       .  S
C406        C407   1.409       .  A
C407        C408   1.408       .  A
C407        H417   1.084       .  S
C408        C409   1.412       .  A
C409        H418   1.084       .  S
C410        C411   1.409       .  A
C410        H419   1.084       .  S
C411        C412   1.411       .  A
C412        H420   1.084       .  S
C421        C422   1.400       .  A
C421        C426   1.404       .  A
C421        H437   1.084       .  S
C422        C423   1.404       .  A
C422        H438   1.084       .  S
C423        C433   1.403       .  A
C423        C424   1.411       .  A
C424        C430   1.413       .  A
C424        C425   1.411       .  A
C425        C427   1.411       .  A
C425        C426   1.412       .  A
C426        C434   1.404       .  A
C427        C436   1.400       .  A
C427        C428   1.403       .  A
C428        C429   1.397       .  A
C428        H439   1.084       .  S
C429        C430   1.402       .  A
C429        H440   1.084       .  S
C430        C431   1.401       .  A
C431        C432   1.404       .  A
C431        H441   1.084       .  S
C432        C433   1.409       .  A
C433        H442   1.085       .  S
C434        C435   1.407       .  A
C434        H443   1.084       .  S
C435        C436   1.407       .  A
C436        H444   1.085       .  S
C445        C446   1.399       .  A
C445        C450   1.403       .  A
C445        H461   1.083       .  S
C446        C447   1.404       .  A
C446        H462   1.084       .  S
C447        C457   1.401       .  A
C447        C448   1.410       .  A
C448        C454   1.413       .  A
C448        C449   1.412       .  A
C449        C451   1.409       .  A
C449        C450   1.413       .  A
C450        C458   1.405       .  A
C451        C460   1.401       .  A
C451        C452   1.404       .  A
C452        C453   1.399       .  A
C452        H463   1.084       .  S
C453        C454   1.403       .  A
C453        H464   1.083       .  S
C454        C455   1.405       .  A
C455        C456   1.405       .  A
C455        H465   1.084       .  S
C456        C457   1.408       .  A
C457        H466   1.084       .  S
C458        C459   1.407       .  A
C458        H467   1.084       .  S
C459        C460   1.409       .  A
C460        H468   1.084       .  S
C469        C470   1.400   1_556  A
C469        C474   1.404   1_556  A
C469        H485   1.084       .  S
C470        C471   1.404       .  A
C470        H486   1.083       .  S
C471        C481   1.405       .  A
C471        C472   1.413       .  A
C472        C478   1.411       .  A
C472        C473   1.412       .  A
C473        C475   1.412       .  A
C473        C474   1.411       .  A
C474        C482   1.403   1_554  A
C475        C484   1.403       .  A
C475        C476   1.403       .  A
C476        C477   1.399       .  A
C476        H487   1.083       .  S
C477        C478   1.404       .  A
C477        H488   1.084       .  S
C478        C479   1.402       .  A
C479        C480   1.406       .  A
C479        H489   1.085       .  S
C480        C481   1.405       .  A
C481        H490   1.084       .  S
C482        C483   1.406   1_556  A
C482        H491   1.085       .  S
C483        C484   1.406       .  A
C484        H492   1.085       .  S
C493        C494   1.400       .  A
C493        C498   1.404       .  A
C493        H509   1.083       .  S
C494        C495   1.404   1_554  A
C494        H510   1.083       .  S
C495        C505   1.408       .  A
C495        C496   1.413       .  A
C496        C502   1.410   1_565  A
C496        C497   1.417   1_565  A
C497        C499   1.413       .  A
C497        C498   1.410   1_546  A
C498        C506   1.405   1_565  A
C499        C508   1.410   1_556  A
C499        C500   1.405       .  A
C500        C501   1.402       .  A
C500        H511   1.083       .  S
C501        C502   1.405       .  A
C501        H512   1.084       .  S
C502        C503   1.407   1_545  A
C503        C504   1.412       .  A
C503        H513   1.084       .  S
C504        C505   1.408       .  A
C505        H514   1.084       .  S
C506        C507   1.410       .  A
C506        H515   1.084       .  S
C507        C508   1.410       .  A
C508        H516   1.084       .  S
C517        C518   1.398       .  A
C517        C522   1.403       .  A
C517        H533   1.083       .  S
C518        C519   1.404       .  A
C518        H534   1.084       .  S
C519        C529   1.399       .  A
C519        C520   1.410       .  A
C520        C526   1.413   1_565  A
C520        C521   1.408   1_565  A
C521        C523   1.409       .  A
C521        C522   1.413   1_545  A
C522        C530   1.403       .  A
C523        C532   1.396       .  A
C523        C524   1.403       .  A
C524        C525   1.396       .  A
C524        H535   1.084       .  S
C525        C526   1.402       .  A
C525        H536   1.084       .  S
C526        C527   1.399       .  A
C527        C528   1.403   1_545  A
C527        H537   1.085       .  S
C528        C529   1.408       .  A
C529        H538   1.085       .  S
C530        C531   1.405   1_565  A
C530        H539   1.084       .  S
C531        C532   1.406       .  A
C532        H540   1.085       .  S
C541        C542   1.398       .  A
C541        C546   1.404       .  A
C541        H557   1.084       .  S
C542        C543   1.403       .  A
C542        H558   1.084       .  S
C543        C553   1.404       .  A
C543        C544   1.413   1_554  A
C544        C550   1.409       .  A
C544        C545   1.413       .  A
C545        C547   1.414       .  A
C545        C546   1.409   1_556  A
C546        C554   1.400   1_554  A
C547        C556   1.407       .  A
C547        C548   1.403       .  A
C548        C549   1.400       .  A
C548        H559   1.083       .  S
C549        C550   1.405       .  A
C549        H560   1.084       .  S
C550        C551   1.403       .  A
C551        C552   1.410   1_556  A
C551        H561   1.084       .  S
C552        C553   1.406       .  A
C553        H562   1.084       .  S
C554        C555   1.409   1_565  A
C554        H563   1.084   1_566  S
C555        C556   1.407   1_545  A
C556        H564   1.084       .  S
C565        C566   1.401       .  A
C565        C570   1.404       .  A
C565        H581   1.084       .  S
C566        C567   1.405       .  A
C566        H582   1.083       .  S
C567        C577   1.404       .  A
C567        C568   1.409       .  A
C568        C574   1.414       .  A
C568        C569   1.414       .  A
C569        C571   1.409       .  A
C569        C570   1.414       .  A
C570        C578   1.409       .  A
C571        C580   1.400       .  A
C571        C572   1.404       .  A
C572        C573   1.398       .  A
C572        H583   1.083       .  S
C573        C574   1.403       .  A
C573        H584   1.084       .  S
C574        C575   1.405       .  A
C575        C576   1.406       .  A
C575        H585   1.084       .  S
C576        C577   1.412       .  A
C577        H586   1.084       .  S
C578        C579   1.407       .  A
C578        H587   1.084       .  S
C579        C580   1.409       .  A
C580        H588   1.084       .  S
C589        C590   1.398       .  A
C589        C594   1.403       .  A
C589        H605   1.083       .  S
C590        C591   1.403       .  A
C590        H606   1.084       .  S
C591        C601   1.400       .  A
C591        C592   1.411       .  A
C592        C598   1.413       .  A
C592        C593   1.412       .  A
C593        C595   1.411       .  A
C593        C594   1.412       .  A
C594        C602   1.402   1_565  A
C595        C604   1.405   1_565  A
C595        C596   1.404       .  A
C596        C597   1.401       .  A
C596        H607   1.084       .  S
C597        C598   1.404       .  A
C597        H608   1.083       .  S
C598        C599   1.407       .  A
C599        C600   1.405       .  A
C599        H609   1.084       .  S
C600        C601   1.406       .  A
C601        H610   1.085       .  S
C602        C603   1.406       .  A
C602        H611   1.085       .  S
C603        C604   1.407       .  A
C604        H612   1.084       .  S
C613        C614   1.398       .  A
C613        C618   1.403       .  A
C613        H629   1.084       .  S
C614        C615   1.403       .  A
C614        H630   1.084       .  S
C615        C625   1.401       .  A
C615        C616   1.412       .  A
C616        C622   1.411       .  A
C616        C617   1.411       .  A
C617        C619   1.414   1_565  A
C617        C618   1.411       .  A
C618        C626   1.399   1_565  A
C619        C628   1.406       .  A
C619        C620   1.404       .  A
C620        C621   1.400   1_545  A
C620        H631   1.084       .  S
C621        C622   1.404       .  A
C621        H632   1.083       .  S
C622        C623   1.404       .  A
C623        C624   1.407       .  A
C623        H633   1.084       .  S
C624        C625   1.405       .  A
C625        H634   1.085       .  S
C626        C627   1.405       .  A
C626        H635   1.085   1_545  S
C627        C628   1.404       .  A
C628        H636   1.084       .  S
C637        C638   1.401       .  A
C637        C642   1.405       .  A
C637        H653   1.083       .  S
C638        C639   1.404       .  A
C638        H654   1.084       .  S
C639        C649   1.410       .  A
C639        C640   1.413       .  A
C640        C646   1.409       .  A
C640        C641   1.417       .  A
C641        C643   1.413       .  A
C641        C642   1.409       .  A
C642        C650   1.405       .  A
C643        C652   1.411       .  A
C643        C644   1.404       .  A
C644        C645   1.402       .  A
C644        H655   1.084       .  S
C645        C646   1.405       .  A
C645        H656   1.083       .  S
C646        C647   1.406       .  A
C647        C648   1.413       .  A
C647        H657   1.084       .  S
C648        C649   1.409       .  A
C649        H658   1.084       .  S
C650        C651   1.413       .  A
C650        H659   1.084       .  S
C651        C652   1.409       .  A
C652        H660   1.084       .  S
C661        C662   1.398       .  A
C661        C666   1.403       .  A
C661        H677   1.084       .  S
C662        C663   1.404       .  A
C662        H678   1.084       .  S
C663        C673   1.398       .  A
C663        C664   1.410       .  A
C664        C670   1.413       .  A
C664        C665   1.409       .  A
C665        C667   1.410       .  A
C665        C666   1.414       .  A
C666        C674   1.402       .  A
C667        C676   1.398       .  A
C667        C668   1.404       .  A
C668        C669   1.397       .  A
C668        H679   1.084       .  S
C669        C670   1.403       .  A
C669        H680   1.084       .  S
C670        C671   1.402       .  A
C671        C672   1.404       .  A
C671        H681   1.085       .  S
C672        C673   1.407       .  A
C673        H682   1.085       .  S
C674        C675   1.404       .  A
C674        H683   1.085       .  S
C675        C676   1.408       .  A
C676        H684   1.085       .  S
C685        C686   1.400       .  A
C685        C690   1.403       .  A
C685        H701   1.083       .  S
C686        C687   1.404   1_554  A
C686        H702   1.084       .  S
C687        C697   1.403       .  A
C687        C688   1.410       .  A
C688        C694   1.413       .  A
C688        C689   1.413       .  A
C689        C691   1.409       .  A
C689        C690   1.413   1_556  A
C690        C698   1.407       .  A
C691        C700   1.401       .  A
C691        C692   1.404       .  A
C692        C693   1.399       .  A
C692        H703   1.084       .  S
C693        C694   1.403       .  A
C693        H704   1.083       .  S
C694        C695   1.405       .  A
C695        C696   1.407       .  A
C695        H705   1.084       .  S
C696        C697   1.409       .  A
C697        H706   1.084       .  S
C698        C699   1.407       .  A
C698        H707   1.084       .  S
C699        C700   1.411   1_554  A
C700        H708   1.084       .  S
C709        C710   1.398       .  A
C709        C714   1.404       .  A
C709        H725   1.084       .  S
C710        C711   1.403       .  A
C710        H726   1.083       .  S
C711        C721   1.404       .  A
C711        C712   1.414       .  A
C712        C718   1.411       .  A
C712        C713   1.412       .  A
C713        C715   1.413       .  A
C713        C714   1.410       .  A
C714        C722   1.400       .  A
C715        C724   1.406       .  A
C715        C716   1.404       .  A
C716        C717   1.400       .  A
C716        H727   1.083       .  S
C717        C718   1.404       .  A
C717        H728   1.084       .  S
C718        C719   1.404       .  A
C719        C720   1.406       .  A
C719        H729   1.085       .  S
C720        C721   1.402       .  A
C721        H730   1.084       .  S
C722        C723   1.408       .  A
C722        H731   1.085       .  S
C723        C724   1.407       .  A
C724        H732   1.084       .  S
C733        C734   1.404       .  A
C733        C738   1.406       .  A
C733        H749   1.083       .  S
C734        C735   1.405       .  A
C734        H750   1.083       .  S
C735        C745   1.415       .  A
C735        C736   1.414       .  A
C736        C742   1.408       .  A
C736        C737   1.419       .  A
C737        C739   1.414       .  A
C737        C738   1.409       .  A
C738        C746   1.409       .  A
C739        C748   1.409       .  A
C739        C740   1.403       .  A
C740        C741   1.400       .  A
C740        H751   1.083       .  S
C741        C742   1.405       .  A
C741        H752   1.084       .  S
C742        C743   1.404       .  A
C743        C744   1.413       .  A
C743        H753   1.084       .  S
C744        C745   1.411       .  A
C745        H754   1.084       .  S
C746        C747   1.415       .  A
C746        H755   1.084       .  S
C747        C748   1.408       .  A
C748        H756   1.084       .  S
C757        C758   1.397       .  A
C757        C762   1.403       .  A
C757        H773   1.084       .  S
C758        C759   1.402       .  A
C758        H774   1.084       .  S
C759        C769   1.400       .  A
C759        C760   1.413       .  A
C760        C766   1.410       .  A
C760        C761   1.407       .  A
C761        C763   1.413       .  A
C761        C762   1.410       .  A
C762        C770   1.396       .  A
C763        C772   1.399       .  A
C763        C764   1.402       .  A
C764        C765   1.396       .  A
C764        H775   1.084       .  S
C765        C766   1.403       .  A
C765        H776   1.084       .  S
C766        C767   1.396       .  A
C767        C768   1.407       .  A
C767        H777   1.085       .  S
C768        C769   1.404       .  A
C769        H778   1.084       .  S
C770        C771   1.407       .  A
C770        H779   1.085       .  S
C771        C772   1.403       .  A
C772        H780   1.084       .  S
C781        C782   1.399       .  A
C781        C786   1.403       .  A
C781        H797   1.084       .  S
C782        C783   1.405       .  A
C782        H798   1.084       .  S
C783        C793   1.400   1_455  A
C783        C784   1.408   1_554  A
C784        C790   1.414       .  A
C784        C785   1.414   1_556  A
C785        C787   1.409   1_554  A
C785        C786   1.414       .  A
C786        C794   1.406       .  A
C787        C796   1.404       .  A
C787        C788   1.405       .  A
C788        C789   1.401       .  A
C788        H799   1.083       .  S
C789        C790   1.404       .  A
C789        H800   1.083       .  S
C790        C791   1.410       .  A
C791        C792   1.407   1_455  A
C791        H801   1.084   1_455  S
C792        C793   1.412   1_556  A
C793        H802   1.084       .  S
C794        C795   1.406       .  A
C794        H803   1.084       .  S
C795        C796   1.411   1_554  A
C796        H804   1.084       .  S
C805        C806   1.400   1_455  A
C805        C810   1.404       .  A
C805        H821   1.084   1_455  S
C806        C807   1.404       .  A
C806        H822   1.084       .  S
C807        C817   1.406       .  A
C807        C808   1.414   1_655  A
C808        C814   1.410       .  A
C808        C809   1.410       .  A
C809        C811   1.413       .  A
C809        C810   1.411       .  A
C810        C818   1.403       .  A
C811        C820   1.398       .  A
C811        C812   1.402       .  A
C812        C813   1.396       .  A
C812        H823   1.084       .  S
C813        C814   1.403       .  A
C813        H824   1.084       .  S
C814        C815   1.396   1_455  A
C815        C816   1.405       .  A
C815        H825   1.085       .  S
C816        C817   1.405       .  A
C817        H826   1.084       .  S
C818        C819   1.406       .  A
C818        H827   1.084       .  S
C819        C820   1.403       .  A
C820        H828   1.085       .  S
C829        C830   1.402       .  A
C829        C834   1.405       .  A
C829        H845   1.083       .  S
C830        C831   1.404       .  A
C830        H846   1.084       .  S
C831        C841   1.411       .  A
C831        C832   1.414       .  A
C832        C838   1.408       .  A
C832        C833   1.416       .  A
C833        C835   1.414       .  A
C833        C834   1.409       .  A
C834        C842   1.405       .  A
C835        C844   1.407       .  A
C835        C836   1.403       .  A
C836        C837   1.399       .  A
C836        H847   1.084       .  S
C837        C838   1.405       .  A
C837        H848   1.083       .  S
C838        C839   1.402       .  A
C839        C840   1.411       .  A
C839        H849   1.084       .  S
C840        C841   1.408       .  A
C841        H850   1.084       .  S
C842        C843   1.412       .  A
C842        H851   1.084       .  S
C843        C844   1.407       .  A
C844        H852   1.084       .  S
C853        C854   1.400       .  A
C853        C858   1.404       .  A
C853        H869   1.083       .  S
C854        C855   1.404       .  A
C854        H870   1.084       .  S
C855        C865   1.404   1_545  A
C855        C856   1.411       .  A
C856        C862   1.412       .  A
C856        C857   1.412       .  A
C857        C859   1.411       .  A
C857        C858   1.413       .  A
C858        C866   1.406       .  A
C859        C868   1.401       .  A
C859        C860   1.404       .  A
C860        C861   1.398       .  A
C860        H871   1.084       .  S
C861        C862   1.403       .  A
C861        H872   1.084       .  S
C862        C863   1.402   1_545  A
C863        C864   1.405       .  A
C863        H873   1.085       .  S
C864        C865   1.406       .  A
C865        H874   1.085       .  S
C866        C867   1.405       .  A
C866        H875   1.084       .  S
C867        C868   1.406       .  A
C868        H876   1.085       .  S
C877        C878   1.403       .  A
C877        C882   1.406       .  A
C877        H893   1.083       .  S
C878        C879   1.405       .  A
C878        H894   1.083       .  S
C879        C889   1.413       .  A
C879        C880   1.413       .  A
C880        C886   1.409       .  A
C880        C881   1.420       .  A
C881        C883   1.413       .  A
C881        C882   1.409       .  A
C882        C890   1.409       .  A
C883        C892   1.413       .  A
C883        C884   1.404       .  A
C884        C885   1.402       .  A
C884        H895   1.083       .  S
C885        C886   1.405       .  A
C885        H896   1.083       .  S
C886        C887   1.408       .  A
C887        C888   1.414       .  A
C887        H897   1.084       .  S
C888        C889   1.411       .  A
C889        H898   1.084       .  S
C890        C891   1.415       .  A
C890        H899   1.084       .  S
C891        C892   1.410       .  A
C892        H900   1.084       .  S
C901        C902   1.397       .  A
C901        C906   1.404       .  A
C901        H917   1.084       .  S
C902        C903   1.402       .  A
C902        H918   1.084       .  S
C903        C913   1.401       .  A
C903        C904   1.413       .  A
C904        C910   1.410       .  A
C904        C905   1.409       .  A
C905        C907   1.413       .  A
C905        C906   1.410       .  A
C906        C914   1.398       .  A
C907        C916   1.402       .  A
C907        C908   1.403       .  A
C908        C909   1.398       .  A
C908        H919   1.084       .  S
C909        C910   1.404       .  A
C909        H920   1.084       .  S
C910        C911   1.398       .  A
C911        C912   1.406       .  A
C911        H921   1.085       .  S
C912        C913   1.404       .  A
C913        H922   1.085       .  S
C914        C915   1.407       .  A
C914        H923   1.085       .  S
C915        C916   1.404       .  A
C916        H924   1.085       .  S
C925        C926   1.397       .  A
C925        C930   1.403       .  A
C925        H941   1.084       .  S
C926        C927   1.403       .  A
C926        H942   1.084       .  S
C927        C937   1.401       .  A
C927        C928   1.413       .  A
C928        C934   1.411       .  A
C928        C929   1.410       .  A
C929        C931   1.414       .  A
C929        C930   1.410       .  A
C930        C938   1.398       .  A
C931        C940   1.405   1_655  A
C931        C932   1.403   1_655  A
C932        C933   1.400   1_455  A
C932        H943   1.083       .  S
C933        C934   1.404       .  A
C933        H944   1.084       .  S
C934        C935   1.402       .  A
C935        C936   1.406       .  A
C935        H945   1.085       .  S
C936        C937   1.404       .  A
C937        H946   1.085       .  S
C938        C939   1.405   1_655  A
C938        H947   1.085       .  S
C939        C940   1.404       .  A
C940        H948   1.084       .  S
C949        C950   1.400       .  A
C949        C954   1.405   1_554  A
C949        H965   1.083       .  S
C950        C951   1.403       .  A
C950        H966   1.084       .  S
C951        C961   1.408       .  A
C951        C952   1.414   1_554  A
C952        C958   1.408       .  A
C952        C953   1.413       .  A
C953        C955   1.414       .  A
C953        C954   1.409       .  A
C954        C962   1.402       .  A
C955        C964   1.406       .  A
C955        C956   1.403       .  A
C956        C957   1.399       .  A
C956        H967   1.084       .  S
C957        C958   1.404       .  A
C957        H968   1.084       .  S
C958        C959   1.400       .  A
C959        C960   1.410       .  A
C959        H969   1.084       .  S
C960        C961   1.406   1_556  A
C961        H970   1.084       .  S
C962        C963   1.411       .  A
C962        H971   1.084       .  S
C963        C964   1.406       .  A
C964        H972   1.084       .  S
C973        C974   1.403       .  A
C973        C978   1.406       .  A
C973        H989   1.083       .  S
C974        C975   1.405       .  A
C974        H990   1.083       .  S
C975        C985   1.413       .  A
C975        C976   1.413       .  A
C976        C982   1.410       .  A
C976        C977   1.421       .  A
C977        C979   1.413       .  A
C977        C978   1.410       .  A
C978        C986   1.409       .  A
C979        C988   1.414       .  A
C979        C980   1.405       .  A
C980        C981   1.403       .  A
C980        H991   1.083       .  S
C981        C982   1.406       .  A
C981        H992   1.084       .  S
C982        C983   1.409       .  A
C983        C984   1.413       .  A
C983        H993   1.084       .  S
C984        C985   1.411       .  A
C985        H994   1.084       .  S
C986        C987   1.413       .  A
C986        H995   1.084       .  S
C987        C988   1.411       .  A
C988        H996   1.084       .  S
C997        C998   1.400       .  A
C997       C1002   1.405       .  A
C997       H1013   1.084       .  S
C998        C999   1.404       .  A
C998       H1014   1.084       .  S
C999       C1009   1.406       .  A
C999       C1000   1.413       .  A
C1000      C1006   1.410       .  A
C1000      C1001   1.413       .  A
C1001      C1003   1.413       .  A
C1001      C1002   1.410       .  A
C1002      C1010   1.403       .  A
C1003      C1012   1.404       .  A
C1003      C1004   1.403       .  A
C1004      C1005   1.398       .  A
C1004      H1015   1.084       .  S
C1005      C1006   1.404       .  A
C1005      H1016   1.084       .  S
C1006      C1007   1.401       .  A
C1007      C1008   1.408       .  A
C1007      H1017   1.085       .  S
C1008      C1009   1.407       .  A
C1009      H1018   1.084       .  S
C1010      C1011   1.410       .  A
C1010      H1019   1.085       .  S
C1011      C1012   1.405       .  A
C1012      H1020   1.084       .  S
C1021      C1022   1.400       .  A
C1021      C1026   1.405       .  A
C1021      H1037   1.084       .  S
C1022      C1023   1.404       .  A
C1022      H1038   1.083       .  S
C1023      C1033   1.409       .  A
C1023      C1024   1.414       .  A
C1024      C1030   1.408       .  A
C1024      C1025   1.414       .  A
C1025      C1027   1.414       .  A
C1025      C1026   1.409       .  A
C1026      C1034   1.403       .  A
C1027      C1036   1.406       .  A
C1027      C1028   1.403       .  A
C1028      C1029   1.399       .  A
C1028      H1039   1.083       .  S
C1029      C1030   1.404       .  A
C1029      H1040   1.084       .  S
C1030      C1031   1.401       .  A
C1031      C1032   1.411       .  A
C1031      H1041   1.084       .  S
C1032      C1033   1.407       .  A
C1033      H1042   1.084       .  S
C1034      C1035   1.409       .  A
C1034      H1043   1.084       .  S
C1035      C1036   1.405       .  A
C1036      H1044   1.084       .  S
C1045      C1046   1.398       .  A
C1045      C1050   1.403       .  A
C1045      H1061   1.083       .  S
C1046      C1047   1.403       .  A
C1046      H1062   1.084       .  S
C1047      C1057   1.403       .  A
C1047      C1048   1.414       .  A
C1048      C1054   1.411       .  A
C1048      C1049   1.411       .  A
C1049      C1051   1.413       .  A
C1049      C1050   1.411       .  A
C1050      C1058   1.401       .  A
C1051      C1060   1.403       .  A
C1051      C1052   1.403       .  A
C1052      C1053   1.399       .  A
C1052      H1063   1.084       .  S
C1053      C1054   1.404       .  A
C1053      H1064   1.084       .  S
C1054      C1055   1.401       .  A
C1055      C1056   1.407       .  A
C1055      H1065   1.085       .  S
C1056      C1057   1.403       .  A
C1057      H1066   1.084       .  S
C1058      C1059   1.406       .  A
C1058      H1067   1.085       .  S
C1059      C1060   1.406       .  A
C1060      H1068   1.085       .  S
C1069      C1070   1.398       .  A
C1069      C1074   1.402       .  A
C1069      H1085   1.083       .  S
C1070      C1071   1.404       .  A
C1070      H1086   1.084       .  S
C1071      C1081   1.400       .  A
C1071      C1072   1.408       .  A
C1072      C1078   1.414       .  A
C1072      C1073   1.413       .  A
C1073      C1075   1.408       .  A
C1073      C1074   1.414       .  A
C1074      C1082   1.406       .  A
C1075      C1084   1.401       .  A
C1075      C1076   1.405       .  A
C1076      C1077   1.400       .  A
C1076      H1087   1.084       .  S
C1077      C1078   1.404       .  A
C1077      H1088   1.084       .  S
C1078      C1079   1.407       .  A
C1079      C1080   1.408       .  A
C1079      H1089   1.084       .  S
C1080      C1081   1.409       .  A
C1081      H1090   1.084       .  S
C1082      C1083   1.404       .  A
C1082      H1091   1.084       .  S
C1083      C1084   1.411       .  A
C1084      H1092   1.084       .  S
C1093      C1094   1.399       .  A
C1093      C1098   1.404       .  A
C1093      H1109   1.084       .  S
C1094      C1095   1.403       .  A
C1094      H1110   1.084       .  S
C1095      C1105   1.403   1_655  A
C1095      C1096   1.413       .  A
C1096      C1102   1.411       .  A
C1096      C1097   1.413       .  A
C1097      C1099   1.414       .  A
C1097      C1098   1.410       .  A
C1098      C1106   1.401       .  A
C1099      C1108   1.407       .  A
C1099      C1100   1.403       .  A
C1100      C1101   1.400       .  A
C1100      H1111   1.083       .  S
C1101      C1102   1.404       .  A
C1101      H1112   1.084       .  S
C1102      C1103   1.403   1_655  A
C1103      C1104   1.407       .  A
C1103      H1113   1.085       .  S
C1104      C1105   1.406       .  A
C1105      H1114   1.085       .  S
C1106      C1107   1.407       .  A
C1106      H1115   1.085       .  S
C1107      C1108   1.404       .  A
C1108      H1116   1.084       .  S
C1117      C1118   1.401       .  A
C1117      C1122   1.405       .  A
C1117      H1133   1.083       .  S
C1118      C1119   1.404       .  A
C1118      H1134   1.083       .  S
C1119      C1129   1.409       .  A
C1119      C1120   1.414       .  A
C1120      C1126   1.409       .  A
C1120      C1121   1.415       .  A
C1121      C1123   1.414       .  A
C1121      C1122   1.410       .  A
C1122      C1130   1.404       .  A
C1123      C1132   1.407       .  A
C1123      C1124   1.403       .  A
C1124      C1125   1.399       .  A
C1124      H1135   1.084       .  S
C1125      C1126   1.405       .  A
C1125      H1136   1.084       .  S
C1126      C1127   1.402       .  A
C1127      C1128   1.411       .  A
C1127      H1137   1.084       .  S
C1128      C1129   1.407       .  A
C1129      H1138   1.084       .  S
C1130      C1131   1.409       .  A
C1130      H1139   1.084       .  S
C1131      C1132   1.405       .  A
C1132      H1140   1.084       .  S
C1141      C1142   1.398       .  A
C1141      C1146   1.403       .  A
C1141      H1157   1.084       .  S
C1142      C1143   1.403       .  A
C1142      H1158   1.084       .  S
C1143      C1153   1.402       .  A
C1143      C1144   1.413       .  A
C1144      C1150   1.410       .  A
C1144      C1145   1.411       .  A
C1145      C1147   1.414       .  A
C1145      C1146   1.410       .  A
C1146      C1154   1.398       .  A
C1147      C1156   1.405       .  A
C1147      C1148   1.403       .  A
C1148      C1149   1.399   1_554  A
C1148      H1159   1.084   1_554  S
C1149      C1150   1.404   1_556  A
C1149      H1160   1.084       .  S
C1150      C1151   1.402   1_554  A
C1151      C1152   1.408   1_556  A
C1151      H1161   1.085       .  S
C1152      C1153   1.405       .  A
C1153      H1162   1.085       .  S
C1154      C1155   1.404       .  A
C1154      H1163   1.085       .  S
C1155      C1156   1.403       .  A
C1156      H1164   1.084       .  S
C1165      C1166   1.397       .  A
C1165      C1170   1.404       .  A
C1165      H1181   1.084       .  S
C1166      C1167   1.402       .  A
C1166      H1182   1.084       .  S
C1167      C1177   1.402       .  A
C1167      C1168   1.413       .  A
C1168      C1174   1.411       .  A
C1168      C1169   1.412       .  A
C1169      C1171   1.413       .  A
C1169      C1170   1.409       .  A
C1170      C1178   1.399       .  A
C1171      C1180   1.408       .  A
C1171      C1172   1.404       .  A
C1172      C1173   1.401       .  A
C1172      H1183   1.083       .  S
C1173      C1174   1.404       .  A
C1173      H1184   1.084       .  S
C1174      C1175   1.405       .  A
C1175      C1176   1.407       .  A
C1175      H1185   1.084       .  S
C1176      C1177   1.404       .  A
C1177      H1186   1.085       .  S
C1178      C1179   1.409       .  A
C1178      H1187   1.084       .  S
C1179      C1180   1.407       .  A
C1180      H1188   1.084       .  S
C1189      C1190   1.397       .  A
C1189      C1194   1.402       .  A
C1189      H1205   1.083       .  S
C1190      C1191   1.403       .  A
C1190      H1206   1.084       .  S
C1191      C1201   1.398       .  A
C1191      C1192   1.410       .  A
C1192      C1198   1.414       .  A
C1192      C1193   1.411       .  A
C1193      C1195   1.411   1_455  A
C1193      C1194   1.413       .  A
C1194      C1202   1.401   1_455  A
C1195      C1204   1.403       .  A
C1195      C1196   1.404   1_655  A
C1196      C1197   1.400       .  A
C1196      H1207   1.084   1_455  S
C1197      C1198   1.404       .  A
C1197      H1208   1.083       .  S
C1198      C1199   1.406       .  A
C1199      C1200   1.405       .  A
C1199      H1209   1.084       .  S
C1200      C1201   1.405       .  A
C1201      H1210   1.085       .  S
C1202      C1203   1.404       .  A
C1202      H1211   1.085       .  S
C1203      C1204   1.406       .  A
C1204      H1212   1.085       .  S
C1213      C1214   1.402       .  A
C1213      C1218   1.405       .  A
C1213      H1229   1.084       .  S
C1214      C1215   1.404       .  A
C1214      H1230   1.083       .  S
C1215      C1225   1.410   1_556  A
C1215      C1216   1.413       .  A
C1216      C1222   1.410   1_556  A
C1216      C1217   1.418   1_655  A
C1217      C1219   1.413       .  A
C1217      C1218   1.410   1_455  A
C1218      C1226   1.407   1_655  A
C1219      C1228   1.410       .  A
C1219      C1220   1.404   1_556  A
C1220      C1221   1.401       .  A
C1220      H1231   1.083       .  S
C1221      C1222   1.405   1_455  A
C1221      H1232   1.083       .  S
C1222      C1223   1.407       .  A
C1223      C1224   1.411       .  A
C1223      H1233   1.084       .  S
C1224      C1225   1.410       .  A
C1225      H1234   1.084       .  S
C1226      C1227   1.412       .  A
C1226      H1235   1.084   1_455  S
C1227      C1228   1.409       .  A
C1228      H1236   1.084       .  S
C1237      C1238   1.396       .  A
C1237      C1242   1.403       .  A
C1237      H1253   1.084       .  S
C1238      C1239   1.402       .  A
C1238      H1254   1.083       .  S
C1239      C1249   1.399   1_455  A
C1239      C1240   1.412   1_455  A
C1240      C1246   1.411       .  A
C1240      C1241   1.409       .  A
C1241      C1243   1.413       .  A
C1241      C1242   1.410   1_655  A
C1242      C1250   1.397       .  A
C1243      C1252   1.403       .  A
C1243      C1244   1.403       .  A
C1244      C1245   1.399       .  A
C1244      H1255   1.084       .  S
C1245      C1246   1.404       .  A
C1245      H1256   1.084       .  S
C1246      C1247   1.401       .  A
C1247      C1248   1.408       .  A
C1247      H1257   1.085       .  S
C1248      C1249   1.404       .  A
C1249      H1258   1.084   1_655  S
C1250      C1251   1.406       .  A
C1250      H1259   1.085       .  S
C1251      C1252   1.405   1_455  A
C1252      H1260   1.084       .  S
C1261      C1262   1.402       .  A
C1261      C1266   1.404       .  A
C1261      H1277   1.083       .  S
C1262      C1263   1.405   1_554  A
C1262      H1278   1.084       .  S
C1263      C1273   1.407       .  A
C1263      C1264   1.410       .  A
C1264      C1270   1.413       .  A
C1264      C1265   1.416       .  A
C1265      C1267   1.409       .  A
C1265      C1266   1.413   1_556  A
C1266      C1274   1.411       .  A
C1267      C1276   1.403       .  A
C1267      C1268   1.405       .  A
C1268      C1269   1.400       .  A
C1268      H1279   1.084       .  S
C1269      C1270   1.403       .  A
C1269      H1280   1.083       .  S
C1270      C1271   1.407       .  A
C1271      C1272   1.408       .  A
C1271      H1281   1.084       .  S
C1272      C1273   1.411       .  A
C1273      H1282   1.084   1_556  S
C1274      C1275   1.408   1_544  A
C1274      H1283   1.084   1_545  S
C1275      C1276   1.412   1_565  A
C1276      H1284   1.084   1_545  S
C1285      C1286   1.402   1_545  A
C1285      C1290   1.405       .  A
C1285      H1301   1.083       .  S
C1286      C1287   1.404       .  A
C1286      H1302   1.083       .  S
C1287      C1297   1.408       .  A
C1287      C1288   1.413   1_565  A
C1288      C1294   1.411       .  A
C1288      C1289   1.412       .  A
C1289      C1291   1.412       .  A
C1289      C1290   1.412       .  A
C1290      C1298   1.406       .  A
C1291      C1300   1.400       .  A
C1291      C1292   1.402       .  A
C1292      C1293   1.397       .  A
C1292      H1303   1.084       .  S
C1293      C1294   1.403       .  A
C1293      H1304   1.084       .  S
C1294      C1295   1.399   1_545  A
C1295      C1296   1.405       .  A
C1295      H1305   1.085       .  S
C1296      C1297   1.406       .  A
C1297      H1306   1.084       .  S
C1298      C1299   1.407       .  A
C1298      H1307   1.084       .  S
C1299      C1300   1.405       .  A
C1300      H1308   1.085       .  S
C1309      C1310   1.403       .  A
C1309      C1314   1.405       .  A
C1309      H1325   1.083       .  S
C1310      C1311   1.406       .  A
C1310      H1326   1.084       .  S
C1311      C1321   1.408       .  A
C1311      C1312   1.409       .  A
C1312      C1318   1.413   1_556  A
C1312      C1313   1.417       .  A
C1313      C1315   1.408   1_556  A
C1313      C1314   1.414       .  A
C1314      C1322   1.413       .  A
C1315      C1324   1.402   1_554  A
C1315      C1316   1.404       .  A
C1316      C1317   1.399       .  A
C1316      H1327   1.084       .  S
C1317      C1318   1.403       .  A
C1317      H1328   1.083       .  S
C1318      C1319   1.407       .  A
C1319      C1320   1.407       .  A
C1319      H1329   1.084       .  S
C1320      C1321   1.412   1_554  A
C1321      H1330   1.084       .  S
C1322      C1323   1.409       .  A
C1322      H1331   1.084       .  S
C1323      C1324   1.412       .  A
C1324      H1332   1.084   1_556  S
C1333      C1334   1.398       .  A
C1333      C1338   1.403       .  A
C1333      H1349   1.084       .  S
C1334      C1335   1.404       .  A
C1334      H1350   1.084       .  S
C1335      C1345   1.399       .  A
C1335      C1336   1.410       .  A
C1336      C1342   1.414       .  A
C1336      C1337   1.411       .  A
C1337      C1339   1.411       .  A
C1337      C1338   1.413       .  A
C1338      C1346   1.403       .  A
C1339      C1348   1.401       .  A
C1339      C1340   1.404       .  A
C1340      C1341   1.399       .  A
C1340      H1351   1.084       .  S
C1341      C1342   1.403       .  A
C1341      H1352   1.084       .  S
C1342      C1343   1.404       .  A
C1343      C1344   1.402       .  A
C1343      H1353   1.084       .  S
C1344      C1345   1.405       .  A
C1345      H1354   1.085       .  S
C1346      C1347   1.406       .  A
C1346      H1355   1.085       .  S
C1347      C1348   1.407       .  A
C1348      H1356   1.085       .  S
C1357      C1358   1.394       .  A
C1357      C1362   1.401       .  A
C1357      H1373   1.084       .  S
C1358      C1359   1.402       .  A
C1358      H1374   1.084       .  S
C1359      C1369   1.394       .  A
C1359      C1360   1.408       .  A
C1360      C1366   1.413       .  A
C1360      C1361   1.411       .  A
C1361      C1363   1.410       .  A
C1361      C1362   1.413       .  A
C1362      C1370   1.398       .  A
C1363      C1372   1.407       .  A
C1363      C1364   1.406       .  A
C1364      C1365   1.403       .  A
C1364      H1375   1.084       .  S
C1365      C1366   1.405       .  A
C1365      H1376   1.083       .  S
C1366      C1367   1.411       .  A
C1367      C1368   1.409       .  A
C1367      H1377   1.084       .  S
C1368      C1369   1.408       .  A
C1369      H1378   1.084       .  S
C1370      C1371   1.403       .  A
C1370      H1379   1.084       .  S
C1371      C1372   1.411       .  A
C1372      H1380   1.084       .  S
C1381      C1382   1.397       .  A
C1381      C1386   1.403       .  A
C1381      H1397   1.084       .  S
C1382      C1383   1.403       .  A
C1382      H1398   1.084       .  S
C1383      C1393   1.399       .  A
C1383      C1384   1.410       .  A
C1384      C1390   1.414       .  A
C1384      C1385   1.412       .  A
C1385      C1387   1.411       .  A
C1385      C1386   1.413       .  A
C1386      C1394   1.401       .  A
C1387      C1396   1.406       .  A
C1387      C1388   1.405       .  A
C1388      C1389   1.402       .  A
C1388      H1399   1.084       .  S
C1389      C1390   1.404       .  A
C1389      H1400   1.083       .  S
C1390      C1391   1.409       .  A
C1391      C1392   1.406       .  A
C1391      H1401   1.084       .  S
C1392      C1393   1.406       .  A
C1393      H1402   1.085       .  S
C1394      C1395   1.404       .  A
C1394      H1403   1.085       .  S
C1395      C1396   1.408       .  A
C1396      H1404   1.084       .  S
C1405      C1406   1.403       .  A
C1405      C1410   1.405       .  A
C1405      H1421   1.083       .  S
C1406      C1407   1.406       .  A
C1406      H1422   1.083       .  S
C1407      C1417   1.409       .  A
C1407      C1408   1.410       .  A
C1408      C1414   1.413       .  A
C1408      C1409   1.420       .  A
C1409      C1411   1.409       .  A
C1409      C1410   1.413       .  A
C1410      C1418   1.413       .  A
C1411      C1420   1.408       .  A
C1411      C1412   1.405       .  A
C1412      C1413   1.402       .  A
C1412      H1423   1.084       .  S
C1413      C1414   1.405       .  A
C1413      H1424   1.083       .  S
C1414      C1415   1.412       .  A
C1415      C1416   1.410       .  A
C1415      H1425   1.084       .  S
C1416      C1417   1.413       .  A
C1417      H1426   1.084       .  S
C1418      C1419   1.410       .  A
C1418      H1427   1.084       .  S
C1419      C1420   1.414       .  A
C1420      H1428   1.084       .  S
C1429      C1430   1.395       .  A
C1429      C1434   1.401       .  A
C1429      H1445   1.084       .  S
C1430      C1431   1.403       .  A
C1430      H1446   1.084       .  S
C1431      C1441   1.394       .  A
C1431      C1432   1.409       .  A
C1432      C1438   1.414       .  A
C1432      C1433   1.408       .  A
C1433      C1435   1.410       .  A
C1433      C1434   1.414       .  A
C1434      C1442   1.398       .  A
C1435      C1444   1.400       .  A
C1435      C1436   1.405       .  A
C1436      C1437   1.399       .  A
C1436      H1447   1.084       .  S
C1437      C1438   1.404       .  A
C1437      H1448   1.084       .  S
C1438      C1439   1.404       .  A
C1439      C1440   1.406       .  A
C1439      H1449   1.084       .  S
C1440      C1441   1.407       .  A
C1441      H1450   1.085       .  S
C1442      C1443   1.401       .  A
C1442      H1451   1.084       .  S
C1443      C1444   1.409       .  A
C1444      H1452   1.085       .  S
C1453      C1454   1.402       .  A
C1453      C1458   1.405       .  A
C1453      H1469   1.083       .  S
C1454      C1455   1.404       .  A
C1454      H1470   1.084       .  S
C1455      C1465   1.410       .  A
C1455      C1456   1.414       .  A
C1456      C1462   1.408       .  A
C1456      C1457   1.413       .  A
C1457      C1459   1.413       .  A
C1457      C1458   1.409       .  A
C1458      C1466   1.405       .  A
C1459      C1468   1.403       .  A
C1459      C1460   1.402       .  A
C1460      C1461   1.397       .  A
C1460      H1471   1.084       .  S
C1461      C1462   1.403       .  A
C1461      H1472   1.083       .  S
C1462      C1463   1.398       .  A
C1463      C1464   1.409       .  A
C1463      H1473   1.084       .  S
C1464      C1465   1.408       .  A
C1465      H1474   1.084       .  S
C1466      C1467   1.412       .  A
C1466      H1475   1.084       .  S
C1467      C1468   1.405       .  A
C1468      H1476   1.084       .  S
C1477      C1478   1.398       .  A
C1477      C1482   1.403       .  A
C1477      H1493   1.084       .  S
C1478      C1479   1.403       .  A
C1478      H1494   1.083       .  S
C1479      C1489   1.404       .  A
C1479      C1480   1.414       .  A
C1480      C1486   1.411       .  A
C1480      C1481   1.410       .  A
C1481      C1483   1.413       .  A
C1481      C1482   1.411       .  A
C1482      C1490   1.401       .  A
C1483      C1492   1.402       .  A
C1483      C1484   1.403       .  A
C1484      C1485   1.398       .  A
C1484      H1495   1.084       .  S
C1485      C1486   1.404       .  A
C1485      H1496   1.084       .  S
C1486      C1487   1.400       .  A
C1487      C1488   1.406       .  A
C1487      H1497   1.085       .  S
C1488      C1489   1.402       .  A
C1489      H1498   1.084       .  S
C1490      C1491   1.405       .  A
C1490      H1499   1.085   1_556  S
C1491      C1492   1.406       .  A
C1492      H1500   1.085       .  S
C1501      C1502   1.400       .  A
C1501      C1506   1.405       .  A
C1501      H1517   1.084       .  S
C1502      C1503   1.403       .  A
C1502      H1518   1.084       .  S
C1503      C1513   1.407       .  A
C1503      C1504   1.414       .  A
C1504      C1510   1.409       .  A
C1504      C1505   1.414       .  A
C1505      C1507   1.414       .  A
C1505      C1506   1.408       .  A
C1506      C1514   1.402       .  A
C1507      C1516   1.408       .  A
C1507      C1508   1.403       .  A
C1508      C1509   1.400       .  A
C1508      H1519   1.083       .  S
C1509      C1510   1.404       .  A
C1509      H1520   1.083       .  S
C1510      C1511   1.402       .  A
C1511      C1512   1.409       .  A
C1511      H1521   1.084       .  S
C1512      C1513   1.407       .  A
C1513      H1522   1.084       .  S
C1514      C1515   1.412       .  A
C1514      H1523   1.084       .  S
C1515      C1516   1.406       .  A
C1516      H1524   1.084       .  S
C1525      C1526   1.400       .  A
C1525      C1530   1.403       .  A
C1525      H1541   1.084       .  S
C1526      C1527   1.405       .  A
C1526      H1542   1.083       .  S
C1527      C1537   1.404       .  A
C1527      C1528   1.410       .  A
C1528      C1534   1.413       .  A
C1528      C1529   1.413       .  A
C1529      C1531   1.410       .  A
C1529      C1530   1.415       .  A
C1530      C1538   1.408       .  A
C1531      C1540   1.400       .  A
C1531      C1532   1.404       .  A
C1532      C1533   1.398       .  A
C1532      H1543   1.084       .  S
C1533      C1534   1.403       .  A
C1533      H1544   1.084       .  S
C1534      C1535   1.404       .  A
C1535      C1536   1.406       .  A
C1535      H1545   1.085       .  S
C1536      C1537   1.408       .  A
C1537      H1546   1.084       .  S
C1538      C1539   1.404       .  A
C1538      H1547   1.084       .  S
C1539      C1540   1.406       .  A
C1540      H1548   1.085       .  S
C1549      C1550   1.397       .  A
C1549      C1554   1.403       .  A
C1549      H1565   1.084       .  S
C1550      C1551   1.402       .  A
C1550      H1566   1.084       .  S
C1551      C1561   1.401       .  A
C1551      C1552   1.412       .  A
C1552      C1558   1.410       .  A
C1552      C1553   1.411       .  A
C1553      C1555   1.413       .  A
C1553      C1554   1.409       .  A
C1554      C1562   1.398       .  A
C1555      C1564   1.406       .  A
C1555      C1556   1.404       .  A
C1556      C1557   1.400       .  A
C1556      H1567   1.084       .  S
C1557      C1558   1.405       .  A
C1557      H1568   1.083       .  S
C1558      C1559   1.403       .  A
C1559      C1560   1.410       .  A
C1559      H1569   1.084       .  S
C1560      C1561   1.405       .  A
C1561      H1570   1.084       .  S
C1562      C1563   1.407       .  A
C1562      H1571   1.084       .  S
C1563      C1564   1.406       .  A
C1564      H1572   1.084       .  S
C1573      C1574   1.399   1_554  A
C1573      C1578   1.403       .  A
C1573      H1589   1.083   1_554  S
C1574      C1575   1.403   1_556  A
C1574      H1590   1.084       .  S
C1575      C1585   1.402   1_554  A
C1575      C1576   1.411       .  A
C1576      C1582   1.412       .  A
C1576      C1577   1.409       .  A
C1577      C1579   1.411       .  A
C1577      C1578   1.414       .  A
C1578      C1586   1.404       .  A
C1579      C1588   1.398       .  A
C1579      C1580   1.403       .  A
C1580      C1581   1.397       .  A
C1580      H1591   1.084       .  S
C1581      C1582   1.403       .  A
C1581      H1592   1.084       .  S
C1582      C1583   1.399       .  A
C1583      C1584   1.405       .  A
C1583      H1593   1.085       .  S
C1584      C1585   1.405   1_554  A
C1585      H1594   1.085       .  S
C1586      C1587   1.402       .  A
C1586      H1595   1.084       .  S
C1587      C1588   1.405       .  A
C1588      H1596   1.085       .  S
C1597      C1598   1.396       .  A
C1597      C1602   1.403       .  A
C1597      H1613   1.083       .  S
C1598      C1599   1.402       .  A
C1598      H1614   1.084       .  S
C1599      C1609   1.400       .  A
C1599      C1600   1.413       .  A
C1600      C1606   1.410       .  A
C1600      C1601   1.411       .  A
C1601      C1603   1.414       .  A
C1601      C1602   1.408       .  A
C1602      C1610   1.396       .  A
C1603      C1612   1.408       .  A
C1603      C1604   1.404       .  A
C1604      C1605   1.401       .  A
C1604      H1615   1.084       .  S
C1605      C1606   1.405       .  A
C1605      H1616   1.083       .  S
C1606      C1607   1.404       .  A
C1607      C1608   1.409       .  A
C1607      H1617   1.084       .  S
C1608      C1609   1.404       .  A
C1609      H1618   1.084       .  S
C1610      C1611   1.409       .  A
C1610      H1619   1.084       .  S
C1611      C1612   1.407       .  A
C1612      H1620   1.084       .  S
C1621      C1622   1.397       .  A
C1621      C1626   1.403       .  A
C1621      H1637   1.083       .  S
C1622      C1623   1.403       .  A
C1622      H1638   1.084       .  S
C1623      C1633   1.397       .  A
C1623      C1624   1.410       .  A
C1624      C1630   1.414       .  A
C1624      C1625   1.410       .  A
C1625      C1627   1.411       .  A
C1625      C1626   1.413       .  A
C1626      C1634   1.401       .  A
C1627      C1636   1.402       .  A
C1627      C1628   1.404       .  A
C1628      C1629   1.399       .  A
C1628      H1639   1.084       .  S
C1629      C1630   1.403       .  A
C1629      H1640   1.083       .  S
C1630      C1631   1.405       .  A
C1631      C1632   1.404       .  A
C1631      H1641   1.084       .  S
C1632      C1633   1.405       .  A
C1633      H1642   1.085       .  S
C1634      C1635   1.404       .  A
C1634      H1643   1.084       .  S
C1635      C1636   1.407       .  A
C1636      H1644   1.085       .  S
C1645      C1646   1.400       .  A
C1645      C1650   1.405       .  A
C1645      H1661   1.083       .  S
C1646      C1647   1.403   1_556  A
C1646      H1662   1.084       .  S
C1647      C1657   1.408       .  A
C1647      C1648   1.413       .  A
C1648      C1654   1.409       .  A
C1648      C1649   1.417   1_554  A
C1649      C1651   1.413       .  A
C1649      C1650   1.409       .  A
C1650      C1658   1.404       .  A
C1651      C1660   1.411       .  A
C1651      C1652   1.404   1_556  A
C1652      C1653   1.402       .  A
C1652      H1663   1.083       .  S
C1653      C1654   1.405       .  A
C1653      H1664   1.083       .  S
C1654      C1655   1.406       .  A
C1655      C1656   1.412       .  A
C1655      H1665   1.084       .  S
C1656      C1657   1.407       .  A
C1657      H1666   1.084       .  S
C1658      C1659   1.411       .  A
C1658      H1667   1.084       .  S
C1659      C1660   1.409       .  A
C1660      H1668   1.084       .  S
C1669      C1670   1.397       .  A
C1669      C1674   1.402       .  A
C1669      H1685   1.083       .  S
C1670      C1671   1.403       .  A
C1670      H1686   1.084       .  S
C1671      C1681   1.397       .  A
C1671      C1672   1.409       .  A
C1672      C1678   1.414       .  A
C1672      C1673   1.409       .  A
C1673      C1675   1.409       .  A
C1673      C1674   1.414       .  A
C1674      C1682   1.402       .  A
C1675      C1684   1.399       .  A
C1675      C1676   1.404       .  A
C1676      C1677   1.399       .  A
C1676      H1687   1.084       .  S
C1677      C1678   1.403       .  A
C1677      H1688   1.083       .  S
C1678      C1679   1.404       .  A
C1679      C1680   1.405       .  A
C1679      H1689   1.084       .  S
C1680      C1681   1.408       .  A
C1681      H1690   1.085       .  S
C1682      C1683   1.403       .  A
C1682      H1691   1.084       .  S
C1683      C1684   1.409       .  A
C1684      H1692   1.085       .  S
