geometry optimzed in LAMMPS
_audit_creation_date              2020-12-01 
_audit_creation_method            'lammps2cif' 
_symmetry_space_group_name_H-M    'P1' 
_symmetry_Int_Tables_number       1 
_symmetry_cell_setting            triclinic 
loop_ 
_symmetry_equiv_pos_as_xyz 
  x,y,z 
_cell_length_a                    41.28727941 
_cell_length_b                    41.48798037348197 
_cell_length_c                    42.526162916225886 
_cell_angle_alpha                 90.52169988059347 
_cell_angle_beta                  89.56520248898829 
_cell_angle_gamma                 120.40076834430944 
loop_ 
_atom_site_label 
_atom_site_type_symbol 
_atom_site_fract_x 
_atom_site_fract_y 
_atom_site_fract_z 
_atom_site_charge 
Fe1        Fe  0.56099129  0.12070842  0.19330181     1.65800
Fe2        Fe  0.60801419  0.19980477  0.23732790     1.73200
Fe3        Fe  0.65678439  0.16213931  0.20489437     1.54400
O4          O  0.63345148  0.10533208  0.21415913    -0.82200
O5          O  0.64774269  0.24089117  0.20956420    -0.80500
O6          O  0.57149274  0.08007129  0.20881776    -0.84700
O7          O  0.58607150  0.12452372  0.14951221    -0.79500
O8          O  0.67189351  0.17037217  0.25151200    -0.81300
O9          O  0.56682669  0.20184820  0.21156025    -0.84100
C10         C  0.61974369  0.13873916  0.13948931     0.96700
C11         C  0.60002850  0.07793003  0.21615081     1.04100
O12         O  0.60854550  0.16081881  0.21159700    -1.13000
O13         O  0.56864753  0.16122315  0.26647858    -0.75500
O14         O  0.53073436  0.11334106  0.23506767    -0.79000
O15         O  0.64780587  0.15353239  0.15760892    -0.79700
C16         C  0.53854950  0.13075336  0.26130758     0.95600
O17         O  0.54291665  0.15578507  0.17632894    -0.77600
O18         O  0.64771698  0.20417283  0.26884087    -0.82800
C19         C  0.67747133  0.24549136  0.19649982     0.98200
C20         C  0.66724556  0.18894413  0.27289634     1.04100
O21         O  0.68590241  0.21979615  0.19540990    -0.78500
C22         C  0.54480303  0.18446033  0.18899302     1.02400
Fe23       Fe  0.78164367  0.26623577  0.44940718     1.65800
Fe24       Fe  0.75733980  0.32123234  0.41017358     1.73200
Fe25       Fe  0.84484308  0.35981948  0.44078691     1.54400
O26         O  0.84612380  0.34390278  0.48662932    -0.82200
O27         O  0.79374765  0.34790709  0.37381368    -0.80500
O28         O  0.79513667  0.28816587  0.49432404    -0.84700
O29         O  0.83521020  0.27460720  0.44208462    -0.79500
O30         O  0.82301419  0.39195959  0.45866838    -0.81300
O31         O  0.73927713  0.27189045  0.38644024    -0.84100
C32         C  0.86492088  0.29927895  0.42853250     0.96700
C33         C  0.82290230  0.31820013  0.50478727     1.04100
O34         O  0.79474318  0.31581667  0.43328758    -1.13000
O35         O  0.71691524  0.29496649  0.44393574    -0.75500
O36         O  0.72522943  0.24853019  0.45853594    -0.79000
O37         O  0.87134329  0.33211358  0.42338867    -0.79700
C38         C  0.70492113  0.26336961  0.45641242     0.95600
O39         O  0.76628186  0.24109561  0.40529114    -0.77600
O40         O  0.76995862  0.37076296  0.43157749    -0.82800
C41         C  0.82828702  0.37247664  0.37244733     0.98200
C42         C  0.79402066  0.39331627  0.45100910     1.04100
O43         O  0.84995038  0.38186201  0.39604859    -0.78500
C44         C  0.74573093  0.24507603  0.38538819     1.02400
Fe45       Fe  0.71512742  0.54721588  0.45695791     1.65800
Fe46       Fe  0.66546741  0.46529868  0.41833816     1.73200
Fe47       Fe  0.62077359  0.50943416  0.44630106     1.54400
O48         O  0.63520818  0.52809625  0.49193895    -0.82200
O49         O  0.63664261  0.47020488  0.38093129    -0.80500
O50         O  0.69228691  0.53646496  0.50170505    -0.84700
O51         O  0.70237649  0.58908176  0.45089321    -0.79500
O52         O  0.58995012  0.45497619  0.46392781    -0.81300
O53         O  0.71453730  0.49983230  0.39442017    -0.84100
C54         C  0.67771386  0.59173409  0.43543644     0.96700
C55         C  0.66052224  0.53135919  0.51074083     1.04100
O56         O  0.66688588  0.50713503  0.44048665    -1.13000
O57         O  0.69407601  0.45577595  0.45341691    -0.75500
O58         O  0.73839731  0.51348370  0.46541635    -0.79000
O59         O  0.64633354  0.56335091  0.42842545    -0.79700
C60         C  0.72598622  0.47855174  0.46482963     0.95600
O61         O  0.73878322  0.55851631  0.41228110    -0.77600
O62         O  0.61648435  0.42625813  0.43962930    -0.82800
C63         C  0.61083704  0.47821757  0.37873859     0.98200
C64         C  0.59149306  0.42573916  0.45747574     1.04100
O65         O  0.60075076  0.49083029  0.40165630    -0.78500
C66         C  0.73723807  0.53479638  0.39223634     1.02400
Fe67       Fe  0.49855034  0.40614875  0.19900625     1.65800
Fe68       Fe  0.52604335  0.35018520  0.23285936     1.73200
Fe69       Fe  0.43560036  0.31173263  0.20768961     1.54400
O70         O  0.40881468  0.33947690  0.22429187    -0.82200
O71         O  0.51338936  0.30242017  0.20828228    -0.80500
O72         O  0.44663389  0.39884054  0.21111061    -0.84700
O73         O  0.48065457  0.38491226  0.15403495    -0.79500
O74         O  0.43202387  0.29318253  0.25312729    -0.81300
O75         O  0.56560927  0.37970056  0.19872154    -0.84100
C76         C  0.45480129  0.35327339  0.14387554     0.96700
C77         C  0.41621291  0.37299402  0.22258344     1.04100
O78         O  0.48662738  0.35596667  0.21322555    -1.13000
O79         O  0.54450093  0.39766243  0.25933002    -0.75500
O80         O  0.51787997  0.43002764  0.24321884    -0.79000
O81         O  0.43415066  0.32598192  0.16177838    -0.79700
C82         C  0.53844065  0.42459057  0.26207903     0.95600
O83         O  0.55377271  0.42429385  0.18546343    -0.77600
O84         O  0.49115750  0.32081728  0.26994556    -0.82800
C85         C  0.48569585  0.27715043  0.19325063     0.98200
C86         C  0.45601997  0.30054646  0.27453738     1.04100
O87         O  0.45481393  0.27672649  0.19073925    -0.78500
C88         C  0.57542155  0.41092625  0.18609902     1.02400
Fe89       Fe  0.42573802  0.19393667  0.45521690     1.65800
Fe90       Fe  0.50373385  0.22060091  0.41026775     1.73200
Fe91       Fe  0.46184351  0.13496147  0.44488963     1.54400
O92         O  0.45413476  0.13787221  0.49217146    -0.82200
O93         O  0.49951886  0.18187843  0.37750204    -0.80500
O94         O  0.42783733  0.17282109  0.49893318    -0.84700
O95         O  0.38239413  0.14300373  0.44012101    -0.79500
O96         O  0.51957038  0.16048077  0.45411993    -0.81300
O97         O  0.46763191  0.22784143  0.38320779    -0.84100
C98         C  0.37831500  0.11124483  0.43363927     0.96700
C99         C  0.44062023  0.15297473  0.50976123     1.04100
O100        O  0.46371320  0.18317341  0.43689724    -1.13000
O101        O  0.51280877  0.26489876  0.43865022    -0.75500
O102        O  0.46451349  0.24695899  0.47160088    -0.79000
O103        O  0.40449836  0.10380342  0.43609775    -0.79700
C104        C  0.49610241  0.27156073  0.46068786     0.95600
O105        O  0.41943813  0.21767226  0.41407165    -0.77600
O106        O  0.54446637  0.21797430  0.43477076    -0.82800
C107        C  0.48429146  0.14667347  0.37540801     0.98200
C108        C  0.54730990  0.19327838  0.44965674     1.04100
O109        O  0.46891852  0.12522864  0.39850982    -0.78500
C110        C  0.43804023  0.22887070  0.38853840     1.02400
Fe111      Fe  0.84751559  0.47798394  0.19453001     1.65800
Fe112      Fe  0.76909016  0.45337135  0.23733215     1.73200
Fe113      Fe  0.81555188  0.53940707  0.20421927     1.54400
O114        O  0.87036107  0.56701549  0.22132237    -0.82200
O115        O  0.73083839  0.46341392  0.21576905    -0.80500
O116        O  0.89237016  0.53150701  0.20230835    -0.84700
O117        O  0.83876157  0.49131407  0.14992511    -0.79500
O118        O  0.79814168  0.54536432  0.24862745    -0.81300
O119        O  0.75456415  0.41135341  0.20513867    -0.84100
C120        C  0.83639967  0.51881505  0.13995138     0.96700
C121        C  0.89717394  0.56079093  0.21636679     1.04100
O122        O  0.81072724  0.49023227  0.21210066    -1.13000
O123        O  0.80223551  0.43821582  0.26150343    -0.75500
O124        O  0.85838296  0.46304988  0.23807605    -0.79000
O125        O  0.83351318  0.54137248  0.15851959    -0.79700
C126        C  0.83585873  0.44512372  0.26039455     0.95600
O127        O  0.80872147  0.42200232  0.18468858    -0.77600
O128        O  0.77908483  0.49116654  0.27244778    -0.82800
C129        C  0.73094375  0.48539625  0.19519302     0.98200
C130        C  0.78751509  0.52504055  0.27288462     1.04100
O131        O  0.76072514  0.51502435  0.18671807    -0.78500
C132        C  0.77375187  0.40080855  0.18946619     1.02400
Fe133      Fe  0.43211275  0.27301287  0.95308966     1.65800
Fe134      Fe  0.51153917  0.32960057  0.91357212     1.73200
Fe135      Fe  0.46286514  0.36587853  0.94763264     1.54400
O136        O  0.41015594  0.33880216  0.92720507    -0.82200
O137        O  0.54805527  0.37991600  0.93509191    -0.80500
O138        O  0.38706244  0.28192828  0.94755962    -0.84700
O139        O  0.44143566  0.29346302  0.99864093    -0.79500
O140        O  0.48382361  0.39203592  0.90477804    -0.81300
O141        O  0.52687620  0.30373365  0.94647923    -0.84100
C142        C  0.44115889  0.32187662  0.00975777     0.96700
C143        C  0.38318806  0.30583573  0.93203010     1.04100
O144        O  0.46892101  0.32282959  0.93807970    -1.13000
O145        O  0.48062004  0.27979784  0.88963532    -0.75500
O146        O  0.42182384  0.25006959  0.90812365    -0.79000
O147        O  0.44106903  0.34630385  0.99197709    -0.79700
C148        C  0.44657262  0.25368543  0.88820284     0.95600
O149        O  0.47121583  0.25558700  0.95949066    -0.77600
O150        O  0.49909198  0.35506224  0.87833062    -0.82800
C151        C  0.54644248  0.39880559  0.95812467     0.98200
C152        C  0.49233163  0.38162668  0.87946819     1.04100
O153        O  0.51577344  0.39538248  0.96818395    -0.78500
C154        C  0.50675755  0.27100411  0.95724339     1.02400
Fe155      Fe  0.56152533  0.47055786  0.69524261     1.65800
Fe156      Fe  0.60751015  0.43689214  0.73588619     1.73200
Fe157      Fe  0.65537740  0.52457645  0.70663064     1.54400
O158        O  0.64105553  0.52927319  0.66116873    -0.82200
O159        O  0.63700976  0.47165180  0.77302076    -0.80500
O160        O  0.58507059  0.47961083  0.65089731    -0.84700
O161        O  0.57746787  0.52642772  0.69940249    -0.79500
O162        O  0.68327953  0.49827421  0.68856404    -0.81300
O163        O  0.55872662  0.42533125  0.75922628    -0.84100
C164        C  0.60090612  0.55205794  0.71734130     0.96700
C165        C  0.61653334  0.50669078  0.64180398     1.04100
O166        O  0.60835660  0.47723509  0.71267231    -1.13000
O167        O  0.57807600  0.39783380  0.70124698    -0.75500
O168        O  0.53569696  0.41300324  0.68814023    -0.79000
O169        O  0.63132217  0.55390875  0.72535700    -0.79700
C170        C  0.54683175  0.38964691  0.68926756     0.95600
O171        O  0.53764519  0.46139587  0.73976145    -0.77600
O172        O  0.65593951  0.44443097  0.71488757    -0.82800
C173        C  0.66469743  0.50484740  0.77441316     0.98200
C174        C  0.68068606  0.46736997  0.69598947     1.04100
O175        O  0.67604371  0.52627637  0.75087414    -0.78500
C176        C  0.53792451  0.43978101  0.76070857     1.02400
Fe177      Fe  0.49772484  0.12434648  0.69569189     1.65800
Fe178      Fe  0.52427694  0.20623868  0.73266799     1.73200
Fe179      Fe  0.43376195  0.15271677  0.70844874     1.54400
O180        O  0.43127363  0.13621412  0.66188764    -0.82200
O181        O  0.49059047  0.20021661  0.77056405    -0.80500
O182        O  0.48192817  0.13111686  0.65140739    -0.84700
O183        O  0.44523483  0.07851510  0.70370700    -0.79500
O184        O  0.45178322  0.20627333  0.69176994    -0.81300
O185        O  0.54321909  0.17642861  0.75667115    -0.84100
C186        C  0.41598123  0.07247771  0.71845491     0.96700
C187        C  0.45378237  0.13361449  0.64274781     1.04100
O188        O  0.48508486  0.16114246  0.71244551    -1.13000
O189        O  0.56295089  0.21822982  0.69733809    -0.75500
O190        O  0.55380879  0.16230311  0.68557305    -0.79000
O191        O  0.40944810  0.09846383  0.72531594    -0.79700
C192        C  0.57471470  0.19751792  0.68657461     0.95600
O193        O  0.51452843  0.11707915  0.73953688    -0.77600
O194        O  0.50987928  0.24059919  0.71058290    -0.82800
C195        C  0.45574648  0.18677914  0.77528711     0.98200
C196        C  0.48204798  0.23726954  0.69552797     1.04100
O197        O  0.43123083  0.16940059  0.75418226    -0.78500
C198        C  0.53593081  0.14286134  0.75861606     1.02400
Fe199      Fe  0.71454881  0.19723536  0.95451806     1.65800
Fe200      Fe  0.66945347  0.23098040  0.91061830     1.73200
Fe201      Fe  0.61939837  0.14234993  0.93893297     1.54400
O202        O  0.64345117  0.10981839  0.92888936    -0.82200
O203        O  0.62497040  0.22817021  0.93438837    -0.80500
O204        O  0.70388848  0.14501440  0.94134193    -0.84700
O205        O  0.68727562  0.17810121  0.99767169    -0.79500
O206        O  0.60649887  0.13775099  0.89194207    -0.81300
O207        O  0.70391559  0.27227953  0.94149243    -0.84100
C208        C  0.65310069  0.15711058  0.00598431     0.96700
C209        C  0.67638754  0.11499558  0.93102807     1.04100
O210        O  0.66786909  0.19018552  0.93476878    -1.13000
O211        O  0.71426747  0.23783569  0.88485301    -0.75500
O212        O  0.74581676  0.21724995  0.91287257    -0.79000
O213        O  0.62637894  0.14120855  0.98651060    -0.79700
C214        C  0.74132154  0.23203396  0.88837428     0.95600
O215        O  0.73415610  0.25152997  0.97031103    -0.77600
O216        O  0.63563304  0.19637523  0.87536286    -0.82800
C217        C  0.59515338  0.20221446  0.94654999     0.98200
C218        C  0.61434632  0.16170001  0.87066499     1.04100
O219        O  0.58844749  0.16876112  0.94868555    -0.78500
C220        C  0.72791086  0.27714636  0.96209842     1.02400
Fe221      Fe  0.84877191  0.40577665  0.69366281     1.65800
Fe222      Fe  0.77185065  0.35155805  0.73896058     1.73200
Fe223      Fe  0.81781818  0.31167556  0.70410816     1.54400
O224        O  0.82790144  0.32314587  0.65720436    -0.82200
O225        O  0.77736653  0.31828221  0.77160291    -0.80500
O226        O  0.84509507  0.38259149  0.64937960    -0.84700
O227        O  0.89402597  0.40073515  0.70566238    -0.79500
O228        O  0.76056085  0.27787641  0.69247885    -0.81300
O229        O  0.80683628  0.39624840  0.76583031    -0.84100
C230        C  0.90066044  0.37529771  0.71365528     0.96700
C231        C  0.83687968  0.35047748  0.63910386     1.04100
O232        O  0.81293835  0.35641907  0.71225112    -1.13000
O233        O  0.76025868  0.38472446  0.71117881    -0.75500
O234        O  0.80879326  0.41859769  0.67956208    -0.79000
O235        O  0.87521708  0.34089873  0.71479112    -0.79700
C236        C  0.77651227  0.40927738  0.69015382     0.95600
O237        O  0.85571877  0.43500909  0.73577075    -0.77600
O238        O  0.73275971  0.30703218  0.71399093    -0.82800
C239        C  0.79228738  0.29816492  0.77312927     0.98200
C240        C  0.73178792  0.28113376  0.69740532     1.04100
O241        O  0.80843551  0.29300654  0.74992385    -0.78500
C242        C  0.83658567  0.42709617  0.76107571     1.02400
Fe243      Fe  0.77857475  0.54577312  0.95236269     1.65800
Fe244      Fe  0.74784052  0.46124765  0.91867337     1.73200
Fe245      Fe  0.83878426  0.51205637  0.94278678     1.54400
O246        O  0.86514618  0.56465240  0.92298936    -0.82200
O247        O  0.76142566  0.42609074  0.94119616    -0.80500
O248        O  0.83133296  0.58921530  0.94033487    -0.84700
O249        O  0.79558380  0.54181943  0.99705863    -0.79500
O250        O  0.83975709  0.49257527  0.89825417    -0.81300
O251        O  0.71006154  0.45203603  0.95469230    -0.84100
C252        C  0.82242151  0.53767913  0.00657323     0.96700
C253        C  0.85939709  0.59173578  0.92577635     1.04100
O254        O  0.78844937  0.50626557  0.93796291    -1.13000
O255        O  0.72880484  0.49056360  0.89386136    -0.75500
O256        O  0.76030948  0.55072660  0.90826038    -0.79000
O257        O  0.84361123  0.53243229  0.98795845    -0.79700
C258        C  0.73748175  0.52433050  0.89036195     0.95600
O259        O  0.72304445  0.50972217  0.96561146    -0.77600
O260        O  0.78121026  0.46659976  0.88037735    -0.82800
C261        C  0.78786077  0.42860297  0.95797863     0.98200
C262        C  0.81593793  0.47839155  0.87627471     1.04100
O263        O  0.81835235  0.45922644  0.96230720    -0.78500
C264        C  0.70086445  0.47461281  0.96625336     1.02400
Fe265      Fe  0.24081507  0.45437651  0.53353657     1.65800
Fe266      Fe  0.29432047  0.53613114  0.57133385     1.73200
Fe267      Fe  0.33578288  0.49064570  0.53972454     1.54400
O268        O  0.31097315  0.43729185  0.55795425    -0.82200
O269        O  0.34265693  0.57419369  0.54875616    -0.80500
O270        O  0.25270487  0.41179067  0.53952243    -0.84700
O271        O  0.26135140  0.46348364  0.48791888    -0.79500
O272        O  0.35902174  0.50988853  0.58368070    -0.81300
O273        O  0.26537655  0.54704493  0.53796698    -0.84100
C274        C  0.29232217  0.46806337  0.47725435     0.96700
C275        C  0.27862038  0.40925915  0.55307666     1.04100
O276        O  0.29037263  0.49368477  0.54830306    -1.13000
O277        O  0.24583607  0.50360718  0.59605778    -0.75500
O278        O  0.21798776  0.44451187  0.57878484    -0.79000
O279        O  0.31869530  0.47137043  0.49465314    -0.79700
C280        C  0.22091055  0.46937226  0.59827434     0.95600
O281        O  0.21953310  0.48989454  0.52589900    -0.77600
O282        O  0.32300276  0.52875187  0.60720456    -0.82800
C283        C  0.36465738  0.57356823  0.52814067     0.98200
C284        C  0.34883208  0.52073579  0.60777148     1.04100
O285        O  0.36494601  0.54401911  0.52067396    -0.78500
C286        C  0.23297879  0.52500627  0.52708024     1.02400
Fe287      Fe  0.09807589  0.52855541  0.79201956     1.65800
Fe288      Fe  0.18048336  0.55672784  0.75310903     1.73200
Fe289      Fe  0.13010048  0.46687020  0.77905670     1.54400
O290        O  0.11493159  0.46361239  0.82524965    -0.82200
O291        O  0.17671726  0.52202367  0.71656055    -0.80500
O292        O  0.10111170  0.50819480  0.83575365    -0.84700
O293        O  0.05353763  0.47781119  0.77751915    -0.79500
O294        O  0.18510710  0.48777089  0.79478616    -0.81300
O295        O  0.14925321  0.57174451  0.72700751    -0.84100
C296        C  0.04899467  0.44791417  0.76511819     0.96700
C297        C  0.10786253  0.48284269  0.84436330     1.04100
O298        O  0.13616006  0.51739611  0.77467975    -1.13000
O299        O  0.19048016  0.59743812  0.78579874    -0.75500
O300        O  0.13585212  0.58236163  0.80808163    -0.79000
O301        O  0.07494250  0.44008947  0.76340014    -0.79700
C302        C  0.17036282  0.60537246  0.80311366     0.95600
O303        O  0.09305684  0.55067352  0.74974950    -0.77600
O304        O  0.21649954  0.54650970  0.77763862    -0.82800
C305        C  0.16258788  0.48719807  0.71227188     0.98200
C306        C  0.21499203  0.51944066  0.79236163     1.04100
O307        O  0.14501994  0.46344617  0.73350848    -0.78500
C308        C  0.11688846  0.56802605  0.72802943     1.02400
Fe309      Fe  0.38496981  0.88061903  0.78785303     1.65800
Fe310      Fe  0.33137072  0.79677984  0.75208045     1.73200
Fe311      Fe  0.28904727  0.84241481  0.78288238     1.54400
O312        O  0.30558119  0.86169256  0.82793660    -0.82200
O313        O  0.29954621  0.80035392  0.71678328    -0.80500
O314        O  0.36506908  0.87533575  0.83353535    -0.84700
O315        O  0.37332438  0.92227918  0.77792116    -0.79500
O316        O  0.25956957  0.78826180  0.80152836    -0.81300
O317        O  0.37778153  0.82870141  0.72499324    -0.84100
C318        C  0.34596531  0.92425969  0.76692591     0.96700
C319        C  0.33365799  0.86883845  0.84479958     1.04100
O320        O  0.33509559  0.83999952  0.77419307    -1.13000
O321        O  0.36317575  0.78885877  0.78460784    -0.75500
O322        O  0.40618150  0.84629510  0.79937571    -0.79000
O323        O  0.31294723  0.89624596  0.76504423    -0.79700
C324        C  0.39419230  0.81155876  0.79743297     0.95600
O325        O  0.40817177  0.88756470  0.74280024    -0.77600
O326        O  0.28507712  0.75893477  0.77676855    -0.82800
C327        C  0.27465341  0.80962645  0.71577159     0.98200
C328        C  0.26146860  0.75907596  0.79582633     1.04100
O329        O  0.26636921  0.82338655  0.73899990    -0.78500
C330        C  0.40348279  0.86258141  0.72271945     1.02400
Fe331      Fe  0.17015036  0.73580946  0.53317446     1.65800
Fe332      Fe  0.19712205  0.68230403  0.57189262     1.73200
Fe333      Fe  0.10823364  0.64140429  0.54395360     1.54400
O334        O  0.07881550  0.66949451  0.55282027    -0.82200
O335        O  0.19211077  0.64111188  0.54269701    -0.80500
O336        O  0.12150448  0.73016451  0.55129869    -0.84700
O337        O  0.14561317  0.71222599  0.48994972    -0.79500
O338        O  0.10149719  0.62850485  0.59093115    -0.81300
O339        O  0.24110138  0.71985345  0.54421386    -0.84100
C340        C  0.12491502  0.67917869  0.47921491     0.96700
C341        C  0.08867061  0.70364073  0.55698296     1.04100
O342        O  0.15848394  0.68664267  0.54950681    -1.13000
O343        O  0.20497875  0.72330529  0.60254699    -0.75500
O344        O  0.19610268  0.76386972  0.57494006    -0.79000
O345        O  0.11015764  0.65061770  0.49675620    -0.79700
C346        C  0.20568590  0.75398014  0.59984167     0.95600
O347        O  0.22163677  0.74971055  0.51359489    -0.77600
O348        O  0.15984866  0.64483696  0.60412006    -0.82800
C349        C  0.16367571  0.61127068  0.53332167     0.98200
C350        C  0.12513590  0.62999731  0.61042825     1.04100
O351        O  0.13041830  0.60602505  0.53488549    -0.78500
C352        C  0.24685030  0.74327120  0.52288397     1.02400
Fe353      Fe  0.44754131  0.59510774  0.79013962     1.65800
Fe354      Fe  0.41564565  0.64420575  0.75117433     1.73200
Fe355      Fe  0.50645680  0.68785993  0.77556426     1.54400
O356        O  0.51194311  0.67610732  0.82154528    -0.82200
O357        O  0.44879292  0.67165682  0.71236073    -0.80500
O358        O  0.46264168  0.62022781  0.83387058    -0.84700
O359        O  0.50149224  0.60562464  0.78220028    -0.79500
O360        O  0.48520975  0.72076517  0.79259338    -0.81300
O361        O  0.39955839  0.59462754  0.72789158    -0.84100
C362        C  0.52840881  0.62872050  0.76515741     0.96700
C363        C  0.49048138  0.65196378  0.84149389     1.04100
O364        O  0.45651436  0.64260043  0.77226127    -1.13000
O365        O  0.37747229  0.61686322  0.78718041    -0.75500
O366        O  0.39115078  0.57382679  0.80112886    -0.79000
O367        O  0.53252871  0.66009473  0.75778539    -0.79700
C368        C  0.36868112  0.58613618  0.80025588     0.95600
O369        O  0.43219615  0.56911335  0.74646820    -0.77600
O370        O  0.42745337  0.69367987  0.77249592    -0.82800
C371        C  0.48335326  0.69575624  0.70861808     0.98200
C372        C  0.45401463  0.71928383  0.78844973     1.04100
O373        O  0.50715039  0.70534584  0.73045924    -0.78500
C374        C  0.41058295  0.57105958  0.72632126     1.02400
Fe375      Fe  0.51999817  0.80291378  0.52704149     1.65800
Fe376      Fe  0.43762726  0.77491322  0.56583203     1.73200
Fe377      Fe  0.48664068  0.86380777  0.53745472     1.54400
O378        O  0.54236293  0.89205852  0.55233971    -0.82200
O379        O  0.40067255  0.78473472  0.54269868    -0.80500
O380        O  0.56443830  0.85455919  0.53956548    -0.84700
O381        O  0.51669219  0.82149956  0.48257540    -0.79500
O382        O  0.47233406  0.86857827  0.58325393    -0.81300
O383        O  0.42667417  0.73439166  0.53272550    -0.84100
C384        C  0.50959321  0.84609172  0.47250724     0.96700
C385        C  0.56895236  0.88510540  0.55039791     1.04100
O386        O  0.48150698  0.81393571  0.54348265    -1.13000
O387        O  0.46865052  0.75910691  0.59134734    -0.75500
O388        O  0.52585334  0.78261164  0.57019149    -0.79000
O389        O  0.50127334  0.86513881  0.49090490    -0.79700
C390        C  0.50151976  0.76420420  0.59132678     0.95600
O391        O  0.48220474  0.74871972  0.51261360    -0.77600
O392        O  0.44353035  0.81068795  0.60211144    -0.82800
C393        C  0.40130609  0.81045248  0.52661923     0.98200
C394        C  0.45689510  0.84556800  0.60550883     1.04100
O395        O  0.43110951  0.84175346  0.52216746    -0.78500
C396        C  0.44733861  0.72628100  0.51634489     1.02400
Fe397      Fe  0.24080098  0.80646073  0.03029261     1.65800
Fe398      Fe  0.29385437  0.78279380  0.07464552     1.73200
Fe399      Fe  0.33609244  0.86907873  0.04101290     1.54400
O400        O  0.32563447  0.86654426  0.99409998    -0.82200
O401        O  0.32727654  0.82199290  0.10772915    -0.80500
O402        O  0.26436671  0.82733721  0.98634478    -0.84700
O403        O  0.24709257  0.85678089  0.04504448    -0.79500
O404        O  0.36970722  0.84612851  0.03034171    -0.81300
O405        O  0.24900352  0.77307999  0.10190478    -0.84100
C406        C  0.27403762  0.88874345  0.05281647     0.96700
C407        C  0.29746423  0.84941523  0.97637450     1.04100
O408        O  0.29016671  0.81941616  0.04853870    -1.13000
O409        O  0.25996208  0.73796316  0.04603561    -0.75500
O410        O  0.22723947  0.75333351  0.01443299    -0.79000
O411        O  0.30829879  0.89779525  0.05108626    -0.79700
C412        C  0.23593089  0.72995319  0.02449176     0.95600
O413        O  0.21099991  0.78330633  0.07184118    -0.77600
O414        O  0.33868168  0.78822892  0.04946722    -0.82800
C415        C  0.34732575  0.85724671  0.10995533     0.98200
C416        C  0.36567360  0.81392812  0.03414072     1.04100
O417        O  0.35311444  0.87870387  0.08710181    -0.78500
C418        C  0.21839525  0.77226894  0.09715256     1.02400
Fe419      Fe  0.44884021  0.88016284  0.28897608     1.65800
Fe420      Fe  0.42208031  0.80340489  0.24336949     1.73200
Fe421      Fe  0.51020702  0.84913409  0.27339243     1.54400
O422        O  0.53725828  0.90461100  0.25912407    -0.82200
O423        O  0.43423929  0.76463467  0.26017455    -0.80500
O424        O  0.50212454  0.92540183  0.28115016    -0.84700
O425        O  0.46440012  0.87015270  0.33234700    -0.79500
O426        O  0.51376802  0.83474589  0.22725230    -0.81300
O427        O  0.38205341  0.78714204  0.27801604    -0.84100
C428        C  0.49202212  0.86645309  0.34022536     0.96700
C429        C  0.53136826  0.93099778  0.26641650     1.04100
O430        O  0.46039881  0.84420342  0.26859985    -1.13000
O431        O  0.40458000  0.83666784  0.22346653    -0.75500
O432        O  0.43239703  0.89267001  0.24691265    -0.79000
O433        O  0.51343854  0.86335403  0.32037738    -0.79700
C434        C  0.41206729  0.87023271  0.22538340     0.95600
O435        O  0.39278187  0.84079486  0.29913540    -0.77600
O436        O  0.45787672  0.81520746  0.20577277    -0.82800
C437        C  0.45838051  0.76420170  0.27804087     0.98200
C438        C  0.49203227  0.82408032  0.20368838     1.04100
O439        O  0.48749683  0.79373412  0.28757194    -0.78500
C440        C  0.37164366  0.80587197  0.29447439     1.02400
Fe441      Fe  0.09225191  0.59517504  0.28890212     1.65800
Fe442      Fe  0.17258567  0.64720266  0.24670668     1.73200
Fe443      Fe  0.12959148  0.69075150  0.28023653     1.54400
O444        O  0.07307601  0.66496124  0.26738771    -0.82200
O445        O  0.21265867  0.69208206  0.27095708    -0.80500
O446        O  0.04931438  0.60398510  0.27586683    -0.84700
O447        O  0.09626567  0.61759239  0.33321582    -0.79500
O448        O  0.14194084  0.70999441  0.23436458    -0.81300
O449        O  0.18198292  0.61455892  0.27671239    -0.84100
C450        C  0.10643582  0.64975249  0.34445941     0.96700
C451        C  0.04607268  0.63126532  0.26683252     1.04100
O452        O  0.13138655  0.64434416  0.27198483    -1.13000
O453        O  0.13747140  0.60253493  0.21980925    -0.75500
O454        O  0.08420798  0.56713830  0.24621050    -0.79000
O455        O  0.11718154  0.67808793  0.32704939    -0.79700
C456        C  0.10494071  0.57428122  0.22203588     0.95600
O457        O  0.12969891  0.57875683  0.30377065    -0.77600
O458        O  0.16829104  0.67977549  0.21297124    -0.82800
C459        C  0.21472962  0.71807851  0.28812897     0.98200
C460        C  0.15633907  0.70240586  0.21111558     1.04100
O461        O  0.18646866  0.72196125  0.29366541    -0.78500
C462        C  0.16342252  0.58905991  0.29652568     1.02400
Fe463      Fe  0.16512275  0.45315351  0.03304960     1.65800
Fe464      Fe  0.19435645  0.53353058  0.07393119     1.73200
Fe465      Fe  0.10862624  0.49070815  0.03974092     1.54400
O466        O  0.10649210  0.47047286  0.99496173    -0.82200
O467        O  0.15607979  0.52744514  0.10836636    -0.80500
O468        O  0.15626284  0.46397464  0.98730961    -0.84700
O469        O  0.10947925  0.41137193  0.03711438    -0.79500
O470        O  0.13592506  0.54525284  0.02137303    -0.81300
O471        O  0.20421599  0.49799422  0.09983332    -0.84100
C472        C  0.08283843  0.40919385  0.05369693     0.96700
C473        C  0.12911132  0.46702912  0.97676393     1.04100
O474        O  0.15632755  0.49288982  0.04869665    -1.13000
O475        O  0.23743540  0.54422458  0.04299199    -0.75500
O476        O  0.22291987  0.48747850  0.02673195    -0.79000
O477        O  0.07912418  0.43733463  0.05907795    -0.79700
C478        C  0.24630645  0.52208104  0.03014751     0.95600
O479        O  0.17350476  0.44063882  0.07857606    -0.77600
O480        O  0.18813873  0.57305162  0.05041945    -0.82800
C481        C  0.12254366  0.52072047  0.10745218     0.98200
C482        C  0.16653614  0.57422209  0.02992863     1.04100
O483        O  0.10304347  0.51022212  0.08274329    -0.78500
C484        C  0.19122916  0.46299059  0.10113463     1.02400
Fe485      Fe  0.51982462  0.73655203  0.02829872     1.65800
Fe486      Fe  0.43853359  0.68429221  0.06684979     1.73200
Fe487      Fe  0.48605487  0.64383289  0.03790404     1.54400
O488        O  0.50958364  0.66129354  0.99383331    -0.82200
O489        O  0.44643053  0.65761336  0.10417890    -0.80500
O490        O  0.50983978  0.71383498  0.98371740    -0.84700
O491        O  0.56254962  0.72522117  0.03462438    -0.79500
O492        O  0.43285218  0.61325998  0.01736301    -0.81300
O493        O  0.47093174  0.73430767  0.09015621    -0.84100
C494        C  0.56554063  0.70348105  0.05357081     0.96700
C495        C  0.50965893  0.68444312  0.97453284     1.04100
O496        O  0.48120005  0.68806344  0.04445773    -1.13000
O497        O  0.42675471  0.71075510  0.03170708    -0.75500
O498        O  0.48402880  0.75675159  0.01992518    -0.79000
O499        O  0.53829198  0.67101506  0.05952538    -0.79700
C500        C  0.44879791  0.74301775  0.02078642     0.95600
O501        O  0.53019180  0.76112525  0.07268281    -0.77600
O502        O  0.40136259  0.63408263  0.04595266    -0.82800
C503        C  0.45174757  0.63005504  0.10436580     0.98200
C504        C  0.40233758  0.61124518  0.02644304     1.04100
O505        O  0.46305410  0.61997490  0.08057160    -0.78500
C506        C  0.50549202  0.75910349  0.09200109     1.02400
Fe507      Fe  0.37433679  0.53049984  0.28667504     1.65800
Fe508      Fe  0.31840376  0.55145247  0.24529531     1.73200
Fe509      Fe  0.27945409  0.46844481  0.28150320     1.54400
O510        O  0.30646523  0.43806090  0.27210834    -0.82200
O511        O  0.28488674  0.55519035  0.27840489    -0.80500
O512        O  0.36787408  0.48000337  0.27318696    -0.84700
O513        O  0.35483546  0.51104422  0.33202028    -0.79500
O514        O  0.26069070  0.45630792  0.23592563    -0.81300
O515        O  0.36417780  0.59925867  0.26295295    -0.84100
C516        C  0.32248731  0.49020904  0.34414078     0.96700
C517        C  0.34075528  0.44706040  0.26885154     1.04100
O518        O  0.32414121  0.51656278  0.27149103    -1.13000
O519        O  0.35180169  0.54759797  0.21215946    -0.75500
O520        O  0.39815190  0.55137458  0.24207846    -0.79000
O521        O  0.29286247  0.47380278  0.32787824    -0.79700
C522        C  0.38465262  0.55288347  0.21544905     0.95600
O523        O  0.38788932  0.58341668  0.30226458    -0.77600
O524        O  0.27181035  0.51187421  0.22123847    -0.82800
C525        C  0.25632240  0.52946527  0.29244905     0.98200
C526        C  0.25551382  0.47686937  0.21756453     1.04100
O527        O  0.24819138  0.49518164  0.29204938    -0.78500
C528        C  0.38648078  0.60794327  0.28586038     1.02400
Fe529      Fe  0.90315353  0.13807802  0.36654584     1.65800
Fe530      Fe  0.95927272  0.11293431  0.40404486     1.73200
Fe531      Fe  0.99882955  0.19989296  0.37217155     1.54400
O532        O  0.98337241  0.19805434  0.32611601    -0.82200
O533        O  0.98966614  0.15070860  0.43898656    -0.80500
O534        O  0.92349390  0.15316773  0.32071418    -0.84700
O535        O  0.91174466  0.19062551  0.37658901    -0.79500
O536        O  0.03144726  0.17722854  0.35620303    -0.81300
O537        O  0.91224010  0.09675198  0.43021491    -0.84100
C538        C  0.93867649  0.22191145  0.38560695     0.96700
C539        C  0.95518564  0.17712160  0.30906489     1.04100
O540        O  0.95370598  0.15043097  0.38103167    -1.13000
O541        O  0.92880770  0.07100992  0.37198710    -0.75500
O542        O  0.88514282  0.08291413  0.35502221    -0.79000
O543        O  0.97241610  0.22904703  0.38669519    -0.79700
C544        C  0.89786282  0.06105500  0.35841564     0.95600
O545        O  0.87835434  0.12029572  0.41122542    -0.77600
O546        O  0.00620874  0.12246993  0.38035059    -0.82800
C547        C  0.01182939  0.18576104  0.44076183     0.98200
C548        C  0.03009652  0.14653398  0.36190436     1.04100
O549        O  0.01966291  0.20728468  0.41740012    -0.78500
C550        C  0.88412440  0.10114417  0.43138566     1.02400
Fe551      Fe  0.11900785  0.21432647  0.61833823     1.65800
Fe552      Fe  0.09202365  0.13659702  0.57497791     1.73200
Fe553      Fe  0.17736810  0.17864466  0.60930612     1.54400
O554        O  0.20763273  0.23298581  0.59339888    -0.82200
O555        O  0.10207626  0.09684364  0.59303583    -0.80500
O556        O  0.17429910  0.25759947  0.61248538    -0.84700
O557        O  0.12962468  0.20277713  0.66287579    -0.79500
O558        O  0.18203179  0.16123321  0.56421497    -0.81300
O559        O  0.05137304  0.12167880  0.60886786    -0.84100
C560        C  0.15561799  0.19818402  0.67360085     0.96700
C561        C  0.20333304  0.26071896  0.59891588     1.04100
O562        O  0.12962674  0.17671193  0.60073571    -1.13000
O563        O  0.07590026  0.17032219  0.55363330    -0.75500
O564        O  0.10656427  0.22755983  0.57456558    -0.79000
O565        O  0.17896842  0.19563083  0.65557079    -0.79700
C566        C  0.08517008  0.20446691  0.55380668     0.95600
O567        O  0.06172595  0.17668179  0.62646985    -0.77600
O568        O  0.12970356  0.14838452  0.53905304    -0.82800
C569        C  0.12201697  0.09538457  0.61482008     0.98200
C570        C  0.16276064  0.15374872  0.53920292     1.04100
O571        O  0.15057054  0.12417588  0.62588045    -0.78500
C572        C  0.04063209  0.14145845  0.62340890     1.02400
Fe573      Fe  0.18783167  0.07087656  0.36003185     1.65800
Fe574      Fe  0.10651182  0.01933638  0.39970383     1.73200
Fe575      Fe  0.15026893  0.97627316  0.36725277     1.54400
O576        O  0.16922525  0.99242876  0.32155332    -0.82200
O577        O  0.11212418  0.98909369  0.43490183    -0.80500
O578        O  0.17821714  0.04960073  0.31483737    -0.84700
O579        O  0.23011804  0.05866475  0.36665958    -0.79500
O580        O  0.09605467  0.94747016  0.34911642    -0.81300
O581        O  0.14100236  0.06662293  0.42533505    -0.84100
C582        C  0.23235780  0.03311276  0.38087820     0.96700
C583        C  0.17303601  0.01873109  0.30386650     1.04100
O584        O  0.14813137  0.02208378  0.37574775    -1.13000
O585        O  0.09611870  0.04954253  0.36744825    -0.75500
O586        O  0.15279642  0.09247032  0.35110874    -0.79000
O587        O  0.20411725  0.00082984  0.38535838    -0.79700
C588        C  0.11787719  0.08026579  0.35401888     0.95600
O589        O  0.19891918  0.09486017  0.40478256    -0.77600
O590        O  0.06736923  0.97204476  0.37653834    -0.82800
C591        C  0.11907702  0.96267502  0.43532140     0.98200
C592        C  0.06690685  0.94884680  0.35663712     1.04100
O593        O  0.13091587  0.95319328  0.41139615    -0.78500
C594        C  0.17559288  0.09133213  0.42615220     1.02400
Fe595      Fe  0.76039538  0.92217782  0.62642155     1.65800
Fe596      Fe  0.84305188  0.97088504  0.58654712     1.73200
Fe597      Fe  0.80012301  0.01724437  0.61432179     1.54400
O598        O  0.74398634  0.99209751  0.60075869    -0.82200
O599        O  0.88295552  0.01745724  0.60913999    -0.80500
O600        O  0.71830319  0.93250429  0.61461040    -0.84700
O601        O  0.76703568  0.94647047  0.67065569    -0.79500
O602        O  0.81312010  0.03305173  0.56779178    -0.81300
O603        O  0.85129990  0.93999271  0.61972788    -0.84100
C604        C  0.77789305  0.97966245  0.68005168     0.96700
C605        C  0.71593953  0.95924237  0.60313935     1.04100
O606        O  0.80113945  0.97010091  0.60910630    -1.13000
O607        O  0.80842633  0.92377315  0.56157826    -0.75500
O608        O  0.75124631  0.89407058  0.58341434    -0.79000
O609        O  0.78743922  0.00688914  0.66150042    -0.79700
C610        C  0.77450975  0.89760952  0.56195967     0.95600
O611        O  0.79490490  0.90207015  0.64017082    -0.77600
O612        O  0.83990925  0.00155861  0.55003634    -0.82800
C613        C  0.88491453  0.04471789  0.62426903     0.98200
C614        C  0.82783816  0.02386740  0.54579831     1.04100
O615        O  0.85671881  0.04908076  0.62788990    -0.78500
C616        C  0.82896295  0.91162759  0.63570433     1.02400
Fe617      Fe  0.83339560  0.78553001  0.36306967     1.65800
Fe618      Fe  0.86334811  0.86465801  0.40692580     1.73200
Fe619      Fe  0.77520923  0.82194808  0.37578257     1.54400
O620        O  0.77461863  0.81025524  0.32855913    -0.82200
O621        O  0.82662056  0.85899338  0.44234199    -0.80500
O622        O  0.81762426  0.79377452  0.31935600    -0.84700
O623        O  0.78008147  0.74225467  0.37334845    -0.79500
O624        O  0.80042388  0.87807063  0.36297050    -0.81300
O625        O  0.87397396  0.82893603  0.43146322    -0.84100
C626        C  0.75018623  0.73880533  0.38506204     0.96700
C627        C  0.79413921  0.80275689  0.30996336     1.04100
O628        O  0.82399183  0.82403737  0.38193073    -1.13000
O629        O  0.90568251  0.87524339  0.37536450    -0.75500
O630        O  0.88888803  0.82212791  0.35003085    -0.79000
O631        O  0.74461200  0.76604051  0.38841351    -0.79700
C632        C  0.91292912  0.85574914  0.35659886     0.95600
O633        O  0.85069439  0.77460750  0.40548462    -0.77600
O634        O  0.85725100  0.90490934  0.38468370    -0.82800
C635        C  0.79174691  0.84681563  0.44513457     0.98200
C636        C  0.83264120  0.90640211  0.36815967     1.04100
O637        O  0.76937140  0.83372088  0.42212827    -0.78500
C638        C  0.86730320  0.79567973  0.42892565     1.02400
Fe639      Fe  0.04316167  0.86316992  0.61867175     1.65800
Fe640      Fe  0.98415618  0.88280628  0.57926998     1.73200
Fe641      Fe  0.94953149  0.79616368  0.61176303     1.54400
O642        O  0.97926185  0.77001363  0.59814906    -0.82200
O643        O  0.93813759  0.87227348  0.60569139    -0.80500
O644        O  0.03802561  0.81182015  0.61063684    -0.84700
O645        O  0.02231194  0.84894764  0.66400773    -0.79500
O646        O  0.92839164  0.78653843  0.56678501    -0.81300
O647        O  0.01556894  0.92808717  0.60851999    -0.84100
C648        C  0.99142428  0.82312621  0.67526071     0.96700
C649        C  0.01349084  0.77947895  0.60143235     1.04100
O650        O  0.99229163  0.84732937  0.60304838    -1.13000
O651        O  0.02992732  0.89709963  0.55098235    -0.75500
O652        O  0.06694390  0.87926189  0.57408474    -0.79000
O653        O  0.96488208  0.79960888  0.65795918    -0.79700
C654        C  0.05866301  0.89346846  0.55128154     0.95600
O655        O  0.05887088  0.91810499  0.62892547    -0.77600
O656        O  0.95216642  0.84320900  0.54606066    -0.82800
C657        C  0.91435067  0.84604811  0.62291830     0.98200
C658        C  0.93250100  0.80790557  0.54420193     1.04100
O659        O  0.91407148  0.81555923  0.62671059    -0.78500
C660        C  0.04561411  0.93918845  0.62382102     1.02400
Fe661      Fe  0.90040917  0.79060367  0.86384015     1.65800
Fe662      Fe  0.95106274  0.85329807  0.92035133     1.73200
Fe663      Fe  0.99504515  0.82205798  0.87213816     1.54400
O664        O  0.96673744  0.76352340  0.87472329    -0.82200
O665        O  0.99204081  0.89974845  0.89780267    -0.80500
O666        O  0.90532420  0.74438483  0.87081274    -0.84700
O667        O  0.92327740  0.79817054  0.81904554    -0.79500
O668        O  0.01544254  0.82309335  0.91639011    -0.81300
O669        O  0.91167649  0.86385005  0.90149012    -0.84100
C670        C  0.95616457  0.81088049  0.80818347     0.96700
C671        C  0.93203680  0.73796376  0.87480838     1.04100
O672        O  0.94905603  0.82200009  0.88519781    -1.13000
O673        O  0.91003829  0.80817735  0.94411106    -0.75500
O674        O  0.86914263  0.77849351  0.90549867    -0.79000
O675        O  0.98436849  0.82131538  0.82553472    -0.79700
C676        C  0.87710920  0.78545566  0.93453892     0.95600
O677        O  0.89124789  0.83450130  0.85571206    -0.77600
O678        O  0.98997714  0.84827836  0.94622775    -0.82800
C679        C  0.01850656  0.90631278  0.87870834     0.98200
C680        C  0.01186418  0.83567172  0.94243382     1.04100
O681        O  0.02514253  0.88088111  0.86893349    -0.78500
C682        C  0.89282903  0.85739086  0.87646709     1.02400
Fe683      Fe  0.11470037  0.92545394  0.11647008     1.65800
Fe684      Fe  0.09460397  0.97190162  0.06204693     1.73200
Fe685      Fe  0.17360780  0.02033195  0.10561122     1.54400
O686        O  0.16758989  0.01081608  0.15276326    -0.82200
O687        O  0.13605634  0.01094693  0.03344355    -0.80500
O688        O  0.13147116  0.94983204  0.16077549    -0.84700
O689        O  0.16734720  0.93397389  0.10686116    -0.79500
O690        O  0.14295219  0.04798701  0.11107561    -0.81300
O691        O  0.09906760  0.93182540  0.03735276    -0.84100
C692        C  0.19941095  0.96178990  0.10028274     0.96700
C693        C  0.15166583  0.98307308  0.17081010     1.04100
O694        O  0.12769890  0.97274140  0.09499355    -1.13000
O695        O  0.04606001  0.93157862  0.08380772    -0.75500
O696        O  0.06007729  0.91209962  0.12741349    -0.79000
O697        O  0.20650483  0.99552556  0.10010616    -0.79700
C698        C  0.03634136  0.91259746  0.10889030     0.95600
O699        O  0.09563438  0.89334595  0.07522799    -0.77600
O700        O  0.08911363  0.01272935  0.08516792    -0.82800
C701        C  0.17063742  0.03460377  0.03561804     0.98200
C702        C  0.11012548  0.04057059  0.10268010     1.04100
O703        O  0.18885174  0.03957994  0.06055241    -0.78500
C704        C  0.09388730  0.90056306  0.04646428     1.02400
Fe705      Fe  0.18418419  0.14144794  0.86333440     1.65800
Fe706      Fe  0.11431144  0.12431871  0.91567709     1.73200
Fe707      Fe  0.15195610  0.20352453  0.87214011     1.54400
O708        O  0.20940951  0.23390865  0.88151115    -0.82200
O709        O  0.07110972  0.12589272  0.89407944    -0.80500
O710        O  0.23006081  0.19443836  0.87046513    -0.84700
O711        O  0.17498409  0.15439767  0.81841513    -0.79500
O712        O  0.14397057  0.21792713  0.91672194    -0.81300
O713        O  0.09882326  0.07586313  0.89097795    -0.84100
C714        C  0.16722706  0.17812911  0.80766574     0.96700
C715        C  0.23560580  0.22621476  0.87936011     1.04100
O716        O  0.15011284  0.15631519  0.88357138    -1.13000
O717        O  0.15375804  0.11924027  0.93982341    -0.75500
O718        O  0.19774416  0.12584610  0.90544629    -0.79000
O719        O  0.16042679  0.19859458  0.82540095    -0.79700
C720        C  0.18341665  0.11893839  0.93285596     0.95600
O721        O  0.14239788  0.08612961  0.85498245    -0.77600
O722        O  0.12482342  0.16750887  0.94582487    -0.82800
C723        C  0.06668960  0.14521487  0.87344074     0.98200
C724        C  0.13462581  0.20153327  0.94285944     1.04100
O725        O  0.09398250  0.17549385  0.86250239    -0.78500
C726        C  0.11165417  0.06458713  0.86903212     1.02400
Fe727      Fe  0.83179277  0.06974548  0.86664326     1.65800
Fe728      Fe  0.85206569  0.02234865  0.92083097     1.73200
Fe729      Fe  0.76939761  0.97623132  0.88093664     1.54400
O730        O  0.73970313  0.00381548  0.88850070    -0.82200
O731        O  0.84838168  0.97505636  0.90214536    -0.80500
O732        O  0.77965779  0.06348242  0.87571253    -0.84700
O733        O  0.81490177  0.04311243  0.82337309    -0.79500
O734        O  0.75771229  0.95862711  0.92689952    -0.81300
O735        O  0.89902524  0.05326073  0.89329400    -0.84100
C736        C  0.79101553  0.01036096  0.81418203     0.96700
C737        C  0.74781883  0.03758080  0.88524737     1.04100
O738        O  0.81781594  0.02276792  0.88937770    -1.13000
O739        O  0.85919574  0.06927131  0.94281898    -0.75500
O740        O  0.85177368  0.10357208  0.90660675    -0.79000
O741        O  0.77200132  0.98427727  0.83326767    -0.79700
C742        C  0.86064229  0.09900677  0.93405978     0.95600
O743        O  0.88596498  0.08197121  0.85571697    -0.77600
O744        O  0.81071266  0.99161064  0.95335957    -0.82800
C745        C  0.82579302  0.94818208  0.88471050     0.98200
C746        C  0.77631838  0.96667534  0.95206460     1.04100
O747        O  0.79570789  0.94504274  0.87365778    -0.78500
C748        C  0.90845713  0.07438209  0.86947508     1.02400
Fe749      Fe  0.04983429  0.21244865  0.12165307     1.65800
Fe750      Fe  0.00308905  0.15027702  0.06367233     1.73200
Fe751      Fe  0.95531522  0.17934513  0.10961972     1.54400
O752        O  0.96292563  0.17905433  0.15696591    -0.82200
O753        O  0.96652843  0.15649985  0.03546496    -0.80500
O754        O  0.02397003  0.20441104  0.16548580    -0.84700
O755        O  0.04455713  0.25859587  0.11274234    -0.79500
O756        O  0.92512910  0.12069851  0.11102053    -0.81300
O757        O  0.04503519  0.19564935  0.04200152    -0.84100
C758        C  0.01720648  0.26373666  0.10709969     0.96700
C759        C  0.99045924  0.19063342  0.17536795     1.04100
O760        O  0.00242359  0.18042722  0.09870039    -1.13000
O761        O  0.03997986  0.13781910  0.08551550    -0.75500
O762        O  0.05856227  0.16809552  0.13126093    -0.79000
O763        O  0.98283054  0.23758835  0.10741710    -0.79700
C764        C  0.05611687  0.14333629  0.11193840     0.95600
O765        O  0.08407527  0.22559981  0.08150093    -0.77600
O766        O  0.96017832  0.10332420  0.08305314    -0.82800
C767        C  0.94312465  0.16736841  0.03860238     0.98200
C768        C  0.93139279  0.09582498  0.09937466     1.04100
O769        O  0.93774836  0.17895870  0.06447925    -0.78500
C770        C  0.07722156  0.21884241  0.05229805     1.02400
Fe771      Fe  0.77028467  0.86314176  0.12363936     1.65800
Fe772      Fe  0.83397323  0.87434477  0.06827906     1.73200
Fe773      Fe  0.79321434  0.79656264  0.11153686     1.54400
O774        O  0.78092226  0.79982560  0.15841551    -0.82200
O775        O  0.81018048  0.83069983  0.03686426    -0.80500
O776        O  0.78982751  0.85657062  0.16609242    -0.84700
O777        O  0.72360678  0.80957744  0.12610931    -0.79500
O778        O  0.84991277  0.82144132  0.12308593    -0.81300
O779        O  0.79890299  0.89180707  0.05089204    -0.84100
C780        C  0.71350892  0.78085047  0.10885414     0.96700
C781        C  0.78617766  0.82644164  0.17668567     1.04100
O782        O  0.79940638  0.84507992  0.10116273    -1.13000
O783        O  0.86027797  0.92072373  0.09647867    -0.75500
O784        O  0.81266070  0.91904289  0.12294571    -0.79000
O785        O  0.73709609  0.77170675  0.09926072    -0.79700
C786        C  0.84571596  0.93667234  0.11164626     0.95600
O787        O  0.74909955  0.87197395  0.08260837    -0.77600
O788        O  0.87353231  0.86078857  0.08248080    -0.82800
C789        C  0.80708873  0.79898069  0.03975265     0.98200
C790        C  0.87743963  0.84424745  0.10597235     1.04100
O791        O  0.80476171  0.78478617  0.06656170    -0.78500
C792        C  0.76692283  0.88752716  0.05755387     1.02400
C793        C  0.89459138  0.04015188  0.13362445    -0.20800
C794        C  0.90424070  0.05578736  0.10339773    -0.07400
C795        C  0.89232845  0.03209531  0.07667496     0.13500
C796        C  0.87423868  0.99357544  0.08080983    -0.20900
C797        C  0.86583350  0.97774226  0.11083472    -0.07400
C798        C  0.87482919  0.00102188  0.13761487     0.13500
C799        C  0.86504764  0.98470758  0.17010565    -0.24200
H800        H  0.90377327  0.05846273  0.15402418     0.14800
H801        H  0.86581267  0.97543614  0.06027765     0.14800
C802        C  0.89802638  0.04718192  0.04360148    -0.24200
H803        H  0.87502113  0.00687310  0.18847119     0.05000
H804        H  0.87829103  0.96757847  0.17430720     0.08200
H805        H  0.83411955  0.96681351  0.17249826     0.08200
H806        H  0.92828796  0.06321548  0.03748312     0.08200
H807        H  0.88577506  0.06549938  0.04151692     0.08200
H808        H  0.88409128  0.02439764  0.02589935     0.05000
C809        C  0.76923534  0.96253275  0.00996865    -0.20800
C810        C  0.75882027  0.94433093  0.98069104    -0.07400
C811        C  0.73888247  0.90468175  0.97971766     0.13500
C812        C  0.73695741  0.88497202  0.00704604    -0.20900
C813        C  0.75224104  0.90392157  0.03536553    -0.07400
C814        C  0.76499621  0.94246317  0.03751835     0.13500
C815        C  0.77627933  0.96266446  0.06863210    -0.24200
H816        H  0.78297094  0.99276119  0.01100351     0.14800
H817        H  0.72640344  0.85517060  0.00569389     0.14800
C818        C  0.72175541  0.88306607  0.94979709    -0.24200
H819        H  0.78670830  0.99299931  0.06610027     0.05000
H820        H  0.79870007  0.95944879  0.07938703     0.08200
H821        H  0.75165900  0.95061950  0.08471309     0.08200
H822        H  0.74341637  0.89040813  0.93134966     0.08200
H823        H  0.70033415  0.88949645  0.94121084     0.08200
H824        H  0.70765065  0.85242650  0.95357915     0.05000
C825        C  0.85897571  0.12395978  0.98608049    -0.20800
C826        C  0.87697007  0.12994376  0.95685819    -0.07400
C827        C  0.91544523  0.15708633  0.95425954     0.13500
C828        C  0.93626246  0.17328665  0.98166797    -0.20900
C829        C  0.91924882  0.16289078  0.01138136    -0.07400
C830        C  0.87971051  0.14020237  0.01354634     0.13500
C831        C  0.85974727  0.12972451  0.04486369    -0.24200
H832        H  0.82940229  0.10308107  0.98787311     0.14800
H833        H  0.96650744  0.19119005  0.98009563     0.14800
C834        C  0.93542127  0.16550393  0.92301622    -0.24200
H835        H  0.82894820  0.11110454  0.04209710     0.05000
H836        H  0.86462713  0.15533934  0.05747375     0.08200
H837        H  0.87027266  0.11481920  0.05932258     0.08200
H838        H  0.92198583  0.17559434  0.90634093     0.08200
H839        H  0.93387975  0.13983720  0.91340055     0.08200
H840        H  0.96553788  0.18731120  0.92512112     0.05000
C841        C  0.09964971  0.24640443  0.00040619    -0.20800
C842        C  0.10734384  0.23420193  0.02855608    -0.07400
C843        C  0.13384587  0.22226956  0.02831533     0.13500
C844        C  0.14648912  0.21620639  0.99943349    -0.20900
C845        C  0.13301372  0.22170446  0.97104208    -0.07400
C846        C  0.11178246  0.23980193  0.97143549     0.13500
C847        C  0.09808934  0.24805470  0.94156359    -0.24200
H848        H  0.07964816  0.25605351  0.00074143     0.14800
H849        H  0.16392168  0.20360741  0.99901180     0.14800
C850        C  0.14492026  0.21115699  0.05807351    -0.24200
H851        H  0.08084326  0.26120227  0.94629926     0.05000
H852        H  0.08049957  0.22164682  0.92846311     0.08200
H853        H  0.12241190  0.26752757  0.92683575     0.08200
H854        H  0.11986719  0.18707290  0.06872511     0.08200
H855        H  0.15708009  0.23504370  0.07485434     0.08200
H856        H  0.16616035  0.20271973  0.05361453     0.05000
C857        C  0.96970368  0.13140080  0.85738076    -0.20800
C858        C  0.94817115  0.09215471  0.85914430    -0.07400
C859        C  0.96668788  0.07141298  0.85783442     0.13500
C860        C  0.00589206  0.09025353  0.85933915    -0.20900
C861        C  0.02745164  0.12941067  0.86212728    -0.07400
C862        C  0.00930699  0.15038268  0.85903681     0.13500
C863        C  0.03111387  0.19239554  0.85963349    -0.24200
H864        H  0.95549557  0.14734378  0.85753065     0.14800
H865        H  0.01968311  0.07391834  0.86022011     0.14800
C866        C  0.94588445  0.02929688  0.85585697    -0.24200
H867        H  0.01240294  0.20426261  0.85754356     0.05000
H868        H  0.05130013  0.20288313  0.83968832     0.08200
H869        H  0.04663939  0.20247113  0.88205074     0.08200
H870        H  0.91514350  0.01693618  0.85313753     0.08200
H871        H  0.95124837  0.01774116  0.87735477     0.08200
H872        H  0.95599419  0.02049366  0.83505221     0.05000
C873        C  0.93620833  0.87722697  0.13736755    -0.20800
C874        C  0.91613304  0.85280774  0.11249953    -0.07400
C875        C  0.93563473  0.84393908  0.08992002     0.13500
C876        C  0.97490603  0.86177173  0.09125941    -0.20900
C877        C  0.99542956  0.88860317  0.11450844    -0.07400
C878        C  0.97576128  0.89539831  0.13862767     0.13500
C879        C  0.99548493  0.92323863  0.16471575    -0.24200
H880        H  0.92127274  0.88437743  0.15453673     0.14800
H881        H  0.98989525  0.85640704  0.07285776     0.14800
C882        C  0.91499802  0.81665978  0.06363549    -0.24200
H883        H  0.98642410  0.90884270  0.18771954     0.05000
H884        H  0.98787495  0.94533614  0.16392464     0.08200
H885        H  0.02646596  0.93688166  0.16322331     0.08200
H886        H  0.90051099  0.82715357  0.04859631     0.08200
H887        H  0.89401516  0.78924556  0.07366878     0.08200
H888        H  0.93432509  0.81231318  0.04839773     0.05000
C889        C  0.19572599  0.07117290  0.95300562    -0.20800
C890        C  0.19857509  0.10599780  0.95769963    -0.07400
C891        C  0.20286139  0.12053062  0.98852639     0.13500
C892        C  0.19858903  0.09761333  0.01406746    -0.20900
C893        C  0.18887810  0.06032821  0.00924825    -0.07400
C894        C  0.18968961  0.04758345  0.97854776     0.13500
C895        C  0.18210584  0.00859371  0.97259102    -0.24200
H896        H  0.19338912  0.06050851  0.92934205     0.14800
H897        H  0.19873090  0.10752821  0.03777761     0.14800
C898        C  0.20947980  0.15928440  0.99448394    -0.24200
H899        H  0.18442981  0.00343097  0.94722339     0.05000
H900        H  0.15326104  0.98804454  0.98047986     0.08200
H901        H  0.20276558  0.00427617  0.98557875     0.08200
H902        H  0.18542632  0.16153016  0.98596509     0.08200
H903        H  0.23538732  0.18005012  0.98205466     0.08200
H904        H  0.21295100  0.16645198  0.01993655     0.05000
C905        C  0.04495400  0.07958329  0.11679500    -0.20800
C906        C  0.07064080  0.11800214  0.11942306    -0.07400
C907        C  0.10929541  0.13007889  0.12250042     0.13500
C908        C  0.12136935  0.10392673  0.11873207    -0.20900
C909        C  0.09578843  0.06590796  0.11245766    -0.07400
C910        C  0.05676364  0.05337672  0.11378451     0.13500
C911        C  0.02702704  0.01251775  0.11200398    -0.24200
H912        H  0.01522641  0.07013927  0.11538029     0.14800
H913        H  0.15119678  0.11377619  0.11914371     0.14800
C914        C  0.13870901  0.17017052  0.12873744    -0.24200
H915        H  0.99867223  0.00791166  0.11763322     0.05000
H916        H  0.03334174  0.99655191  0.12924818     0.08200
H917        H  0.02562295  0.00135016  0.08794982     0.08200
H918        H  0.12704450  0.18900717  0.12997302     0.08200
H919        H  0.16038801  0.18020581  0.10996346     0.08200
H920        H  0.15256456  0.17209546  0.15151337     0.05000
C921        C  0.81948099  0.78179594  0.95457366    -0.20800
C922        C  0.84673215  0.77143811  0.95814058    -0.07400
C923        C  0.85061541  0.75838133  0.98755191     0.13500
C924        C  0.83277135  0.76302327  0.01394135    -0.20900
C925        C  0.81147839  0.78065906  0.01129680    -0.07400
C926        C  0.80168182  0.78663391  0.98095080     0.13500
C927        C  0.77332978  0.79886344  0.97623601    -0.24200
H928        H  0.81515632  0.79009514  0.93161487     0.14800
H929        H  0.83845284  0.75610452  0.03697273     0.14800
C930        C  0.87424452  0.74045662  0.99110158    -0.24200
H931        H  0.76711090  0.79919530  0.95091139     0.05000
H932        H  0.78384033  0.82743399  0.98562705     0.08200
H933        H  0.74664289  0.77908642  0.98825696     0.08200
H934        H  0.90354706  0.75993993  0.98396593     0.08200
H935        H  0.86279453  0.71514642  0.97592345     0.08200
H936        H  0.87442987  0.73196918  0.01576722     0.05000
C937        C  0.85050531  0.87471237  0.90160598    -0.20800
C938        C  0.86989368  0.87541496  0.87412416    -0.07400
C939        C  0.86985685  0.89643124  0.84805695     0.13500
C940        C  0.85171214  0.91739775  0.85094692    -0.20900
C941        C  0.83487946  0.91862135  0.87941138    -0.07400
C942        C  0.83398402  0.89666779  0.90492971     0.13500
C943        C  0.81762100  0.89711234  0.93668681    -0.24200
H944        H  0.85029044  0.85860145  0.92163773     0.14800
H945        H  0.85319674  0.93506638  0.83169238     0.14800
C946        C  0.89066744  0.89975422  0.81790680    -0.24200
H947        H  0.83933261  0.90512592  0.95513062     0.05000
H948        H  0.79369661  0.86884661  0.94185090     0.08200
H949        H  0.80734110  0.91703415  0.93821077     0.08200
H950        H  0.90560698  0.88392005  0.81804336     0.08200
H951        H  0.91188485  0.92957072  0.81375453     0.08200
H952        H  0.87055695  0.88933025  0.79801541     0.05000
C953        C  0.07477651  0.86161214  0.96595923    -0.20800
C954        C  0.03575256  0.83867334  0.96916310    -0.07400
C955        C  0.02020002  0.82599987  0.99932002     0.13500
C956        C  0.04288527  0.84175508  0.02589162    -0.20900
C957        C  0.08018377  0.87066793  0.02257818    -0.07400
C958        C  0.09733284  0.87773619  0.99262676     0.13500
C959        C  0.13900480  0.90362484  0.98896114    -0.24200
H960        H  0.08702805  0.87000793  0.94271109     0.14800
H961        H  0.03009045  0.83528453  0.04905256     0.14800
C962        C  0.97922354  0.79787709  0.00350224    -0.24200
H963        H  0.14790835  0.90635637  0.96394759     0.05000
H964        H  0.15416943  0.89249022  0.00235462     0.08200
H965        H  0.14736227  0.93180545  0.99812943     0.08200
H966        H  0.97165419  0.77266348  0.98898597     0.08200
H967        H  0.96217777  0.81029362  0.99628292     0.08200
H968        H  0.97237949  0.78893173  0.02837269     0.05000
C969        C  0.05054697  0.00745037  0.85953377    -0.20800
C970        C  0.08965074  0.02403434  0.86144518    -0.07400
C971        C  0.10543181  0.00071818  0.86312255     0.13500
C972        C  0.08158699  0.96176696  0.86647249    -0.20900
C973        C  0.04240794  0.94573891  0.86823803    -0.07400
C974        C  0.02672788  0.96874798  0.86266557     0.13500
C975        C  0.98487183  0.95298519  0.86029886    -0.24200
H976        H  0.03845168  0.02522845  0.85752104     0.14800
H977        H  0.09368411  0.94417155  0.86982940     0.14800
C978        C  0.14729688  0.01698761  0.86352055    -0.24200
H979        H  0.97816259  0.97438484  0.85241836     0.05000
H980        H  0.97113596  0.94287801  0.88349135     0.08200
H981        H  0.97272713  0.92972416  0.84291104     0.08200
H982        H  0.15961291  0.03659148  0.88361246     0.08200
H983        H  0.15968846  0.03222483  0.84127851     0.08200
H984        H  0.15493151  0.99500589  0.86584351     0.05000
C985        C  0.95220140  0.78807999  0.72128786    -0.20800
C986        C  0.98430641  0.82038177  0.70982108    -0.07400
C987        C  0.00606520  0.84997931  0.73116867     0.13500
C988        C  0.99522831  0.84617369  0.76286651    -0.20900
C989        C  0.96311910  0.81407222  0.77397815    -0.07400
C990        C  0.94125133  0.78465286  0.75292336     0.13500
C991        C  0.90718632  0.74908068  0.76381322    -0.24200
H992        H  0.93521779  0.76516172  0.70538105     0.14800
H993        H  0.01203273  0.86860336  0.77928794     0.14800
C994        C  0.04030812  0.88597978  0.72113894    -0.24200
H995        H  0.89431498  0.72835070  0.74441463     0.05000
H996        H  0.88559232  0.75519481  0.77293054     0.08200
H997        H  0.91530601  0.73621782  0.78262976     0.08200
H998        H  0.03247281  0.90002915  0.70313310     0.08200
H999        H  0.06197163  0.88018681  0.71161754     0.08200
H1000       H  0.05317642  0.90584552  0.74111427     0.05000
C1001       C  0.78773148  0.83784614  0.26623447    -0.20800
C1002       C  0.79078383  0.80722264  0.27591990    -0.07400
C1003       C  0.79166239  0.78281854  0.25309550     0.13500
C1004       C  0.79017274  0.79010254  0.22118005    -0.20900
C1005       C  0.78779685  0.82117973  0.21118493    -0.07400
C1006       C  0.78630809  0.84530815  0.23431715     0.13500
C1007       C  0.78290339  0.87877954  0.22608672    -0.24200
H1008       H  0.78720486  0.85661217  0.28387996     0.14800
H1009       H  0.79107699  0.77121692  0.20390004     0.14800
C1010       C  0.79296857  0.74842540  0.26213956    -0.24200
H1011       H  0.78102639  0.89346638  0.24738290     0.05000
H1012       H  0.75705812  0.86975396  0.21211951     0.08200
H1013       H  0.80799452  0.89924551  0.21260368     0.08200
H1014       H  0.76918433  0.73088104  0.27815488     0.08200
H1015       H  0.81991736  0.75649961  0.27393807     0.08200
H1016       H  0.79079191  0.73113709  0.24128109     0.05000
C1017       C  0.93649623  0.80293719  0.48704571    -0.20800
C1018       C  0.91396870  0.79187083  0.51405395    -0.07400
C1019       C  0.87445635  0.77161636  0.51112469     0.13500
C1020       C  0.85850225  0.76749496  0.48120411    -0.20900
C1021       C  0.88144279  0.78302714  0.45467150    -0.07400
C1022       C  0.92055718  0.79844492  0.45732647     0.13500
C1023       C  0.94556748  0.81217115  0.42885208    -0.24200
H1024       H  0.96680919  0.81755991  0.48941771     0.14800
H1025       H  0.82842508  0.75561386  0.47899693     0.14800
C1026       C  0.84933427  0.75729187  0.53961006    -0.24200
H1027       H  0.97552437  0.82324877  0.43490019     0.05000
H1028       H  0.94329783  0.83477705  0.41719242     0.08200
H1029       H  0.93662569  0.78831276  0.41235631     0.08200
H1030       H  0.85505166  0.78089396  0.55560139     0.08200
H1031       H  0.85458326  0.73709702  0.55226026     0.08200
H1032       H  0.81917322  0.74278744  0.53306403     0.05000
C1033       C  0.75033089  0.96612140  0.73386520    -0.20800
C1034       C  0.78107718  0.98770052  0.71420169    -0.07400
C1035       C  0.81491804  0.01639411  0.72745758     0.13500
C1036       C  0.81688582  0.02322362  0.75993315    -0.20900
C1037       C  0.78611468  0.00194704  0.77982802    -0.07400
C1038       C  0.75224794  0.97283753  0.76648479     0.13500
C1039       C  0.71763395  0.94915979  0.78604434    -0.24200
H1040       H  0.72456010  0.94409599  0.72354912     0.14800
H1041       H  0.84302967  0.04498191  0.76992928     0.14800
C1042       C  0.84964183  0.03902749  0.70769901    -0.24200
H1043       H  0.69328106  0.92980462  0.77126436     0.05000
H1044       H  0.70972410  0.96734138  0.79932581     0.08200
H1045       H  0.72285175  0.93174593  0.80256219     0.08200
H1046       H  0.84475833  0.05617610  0.69064878     0.08200
H1047       H  0.85692689  0.02008994  0.69489719     0.08200
H1048       H  0.87422051  0.05842561  0.72223884     0.05000
C1049       C  0.75287238  0.86330565  0.47944619    -0.20800
C1050       C  0.77728912  0.84904720  0.47652859    -0.07400
C1051       C  0.79041947  0.84047900  0.50401959     0.13500
C1052       C  0.78383160  0.85185665  0.53322429    -0.20900
C1053       C  0.76385599  0.87084053  0.53576254    -0.07400
C1054       C  0.74584144  0.87416419  0.50901491     0.13500
C1055       C  0.72121532  0.89120626  0.51157374    -0.24200
H1056       H  0.74153794  0.86850799  0.45844552     0.14800
H1057       H  0.79779095  0.84937106  0.55368776     0.14800
C1058       C  0.81218656  0.82020939  0.50281168    -0.24200
H1059       H  0.70987288  0.89254722  0.48833293     0.05000
H1060       H  0.73724470  0.91995975  0.52135431     0.08200
H1061       H  0.69718482  0.87400445  0.52746890     0.08200
H1062       H  0.83997700  0.83771409  0.49153870     0.08200
H1063       H  0.79595942  0.79363272  0.48948082     0.08200
H1064       H  0.81734290  0.81322224  0.52672245     0.05000
C1065       C  0.87816347  0.90279542  0.66007717    -0.20800
C1066       C  0.84281503  0.88678089  0.64583418    -0.07400
C1067       C  0.82655909  0.85007077  0.63329903     0.13500
C1068       C  0.84926625  0.83405854  0.62884122    -0.20900
C1069       C  0.88659524  0.85291285  0.63902822    -0.07400
C1070       C  0.89936238  0.88503031  0.65812473     0.13500
C1071       C  0.93570152  0.90060442  0.67577120    -0.24200
H1072       H  0.89003127  0.93009745  0.67109304     0.14800
H1073       H  0.83885298  0.80845886  0.61528740     0.14800
C1074       C  0.78623199  0.82888896  0.62277431    -0.24200
H1075       H  0.94230728  0.92648971  0.68887853     0.05000
H1076       H  0.95902993  0.90665570  0.65941927     0.08200
H1077       H  0.93348328  0.87959148  0.69296620     0.08200
H1078       H  0.78099006  0.84482535  0.60483411     0.08200
H1079       H  0.76762596  0.82429548  0.64328886     0.08200
H1080       H  0.77855818  0.80117711  0.61259646     0.05000
C1081       C  0.15177347  0.01975313  0.21672473    -0.20800
C1082       C  0.15689637  0.99099195  0.20489275    -0.07400
C1083       C  0.16991337  0.97322333  0.22506355     0.13500
C1084       C  0.17604129  0.98372243  0.25696013    -0.20900
C1085       C  0.16997391  0.01196076  0.26921765    -0.07400
C1086       C  0.15796092  0.03047535  0.24848627     0.13500
C1087       C  0.15041820  0.06079662  0.25939272    -0.24200
H1088       H  0.14247319  0.03377376  0.20089067     0.14800
H1089       H  0.18564933  0.96968239  0.27242898     0.14800
C1090       C  0.17870638  0.94427922  0.21281885    -0.24200
H1091       H  0.14010355  0.07098839  0.24000297     0.05000
H1092       H  0.17668775  0.08514463  0.26833260     0.08200
H1093       H  0.12858002  0.04993653  0.27810403     0.08200
H1094       H  0.20004053  0.95644254  0.19376622     0.08200
H1095       H  0.15284178  0.91976594  0.20351052     0.08200
H1096       H  0.19003637  0.93427969  0.23155416     0.05000
C1097       C  0.12454368  0.96298089  0.49294522    -0.20800
C1098       C  0.11179559  0.94202445  0.46506889    -0.07400
C1099       C  0.08698010  0.90296032  0.46671248     0.13500
C1100       C  0.07318118  0.88642197  0.49620863    -0.20900
C1101       C  0.08347748  0.90815794  0.52375177    -0.07400
C1102       C  0.11038629  0.94657835  0.52223479     0.13500
C1103       C  0.12186319  0.97088112  0.55124443    -0.24200
H1104       H  0.14354542  0.99284366  0.49162157     0.14800
H1105       H  0.05188258  0.85707601  0.49752199     0.14800
C1106       C  0.07241308  0.87926164  0.43741972    -0.24200
H1107       H  0.14318210  0.00037029  0.54594982     0.05000
H1108       H  0.13402786  0.96018701  0.56861978     0.08200
H1109       H  0.09695842  0.97053156  0.56165313     0.08200
H1110       H  0.09615105  0.88045728  0.42399416     0.08200
H1111       H  0.05764393  0.88958196  0.42248131     0.08200
H1112       H  0.05232303  0.84952556  0.44304519     0.05000
C1113       C  0.96712352  0.91132806  0.33390078    -0.20800
C1114       C  0.95159405  0.87395019  0.34309916    -0.07400
C1115       C  0.97593380  0.85918789  0.34559428     0.13500
C1116       C  0.01512284  0.88401075  0.34580969    -0.20900
C1117       C  0.02999600  0.92259885  0.34271558    -0.07400
C1118       C  0.00599750  0.93569649  0.33348305     0.13500
C1119       C  0.02028371  0.97583328  0.32483519    -0.24200
H1120       H  0.94929935  0.92202992  0.32906597     0.14800
H1121       H  0.03369310  0.87358303  0.35134813     0.14800
C1122       C  0.96252320  0.81827704  0.34912689    -0.24200
H1123       H  0.00942924  0.97701808  0.30133245     0.05000
H1124       H  0.05141058  0.99241962  0.32351869     0.08200
H1125       H  0.01031750  0.98882276  0.34243709     0.08200
H1126       H  0.93177324  0.80048811  0.35144058     0.08200
H1127       H  0.97136871  0.80853602  0.32812415     0.08200
H1128       H  0.97589564  0.81403754  0.36993153     0.05000
C1129       C  0.13990548  0.19382422  0.76281121    -0.20800
C1130       C  0.16469291  0.18228593  0.77320667    -0.07400
C1131       C  0.18684136  0.17671533  0.75079266     0.13500
C1132       C  0.18360561  0.18289975  0.71882657    -0.20900
C1133       C  0.15861318  0.19428255  0.70825600    -0.07400
C1134       C  0.13633432  0.19972800  0.73090815     0.13500
C1135       C  0.10865689  0.21178820  0.72225415    -0.24200
H1136       H  0.12269666  0.19793343  0.77990812     0.14800
H1137       H  0.20065154  0.17831185  0.70192553     0.14800
C1138       C  0.21461785  0.16517375  0.76025977    -0.24200
H1139       H  0.09495375  0.21580278  0.74330323     0.05000
H1140       H  0.08599349  0.19007511  0.70738534     0.08200
H1141       H  0.12332652  0.23884276  0.70963114     0.08200
H1142       H  0.19962567  0.13693022  0.77087341     0.08200
H1143       H  0.23494227  0.18563433  0.77740617     0.08200
H1144       H  0.23082072  0.16393455  0.73978157     0.05000
C1145       C  0.17608089  0.14404163  0.45238646    -0.20800
C1146       C  0.18716014  0.11732163  0.45300592    -0.07400
C1147       C  0.19768181  0.10880941  0.48184904     0.13500
C1148       C  0.19337258  0.12458367  0.50980586    -0.20900
C1149       C  0.17769199  0.14773886  0.50941044    -0.07400
C1150       C  0.17109217  0.15934292  0.48015605     0.13500
C1151       C  0.15813388  0.18723672  0.47784868    -0.24200
H1152       H  0.16785283  0.15039391  0.43030354     0.14800
H1153       H  0.19894062  0.11602033  0.53216458     0.14800
C1154       C  0.21075277  0.08105167  0.48332863    -0.24200
H1155       H  0.15618700  0.19423152  0.45303773     0.05000
H1156       H  0.17874363  0.21338702  0.48983872     0.08200
H1157       H  0.12991607  0.17612042  0.48851913     0.08200
H1158       H  0.23644192  0.09106947  0.46871517     0.08200
H1159       H  0.18832294  0.05365973  0.47433948     0.08200
H1160       H  0.21747390  0.07713347  0.50773603     0.05000
C1161       C  0.98613497  0.08492535  0.64545327    -0.20800
C1162       C  0.00119785  0.12184986  0.63519858    -0.07400
C1163       C  0.97648798  0.13576814  0.63062440     0.13500
C1164       C  0.93731979  0.11062938  0.63080223    -0.20900
C1165       C  0.92264854  0.07241718  0.63652371    -0.07400
C1166       C  0.94730908  0.06039698  0.64702069     0.13500
C1167       C  0.93360075  0.02132501  0.65871648    -0.24200
H1168       H  0.00482327  0.07444759  0.65064562     0.14800
H1169       H  0.91845666  0.12026088  0.62383513     0.14800
C1170       C  0.99105861  0.17637197  0.62379170    -0.24200
H1171       H  0.94567495  0.02278423  0.68229176     0.05000
H1172       H  0.94275984  0.00646750  0.64231644     0.08200
H1173       H  0.90262366  0.00479962  0.66130964     0.08200
H1174       H  0.00855843  0.18482923  0.60225521     0.08200
H1175       H  0.00828576  0.19369375  0.64387284     0.08200
H1176       H  0.96786471  0.18218319  0.62029745     0.05000
C1177       C  0.10687720  0.99864388  0.62512430    -0.20800
C1178       C  0.06825184  0.97947303  0.63249475    -0.07400
C1179       C  0.05157228  0.00050528  0.64212985     0.13500
C1180       C  0.07221577  0.03949694  0.64000925    -0.20900
C1181       C  0.10881470  0.05805301  0.62791832    -0.07400
C1182       C  0.12714692  0.03779183  0.62185306     0.13500
C1183       C  0.16681740  0.05700201  0.60953925    -0.24200
H1184       H  0.12026751  0.98280367  0.61880853     0.14800
H1185       H  0.05860938  0.05546529  0.64530110     0.14800
C1186       C  0.01206681  0.98232032  0.65441858    -0.24200
H1187       H  0.17679198  0.03694841  0.60554557     0.05000
H1188       H  0.18580116  0.07839081  0.62678348     0.08200
H1189       H  0.16846654  0.07078194  0.58683207     0.08200
H1190       H  0.00455542  0.00322381  0.66260321     0.08200
H1191       H  0.00952894  0.96474496  0.67483903     0.08200
H1192       H  0.99189403  0.96541340  0.63570981     0.05000
C1193       C  0.99340619  0.21299009  0.26276422    -0.20800
C1194       C  0.96131204  0.18070208  0.27422571    -0.07400
C1195       C  0.93894898  0.15175149  0.25255994     0.13500
C1196       C  0.94953049  0.15588707  0.22065225    -0.20900
C1197       C  0.98219199  0.18767360  0.20962742    -0.07400
C1198       C  0.00422905  0.21673999  0.23101072     0.13500
C1199       C  0.03862398  0.25226464  0.22045990    -0.24200
H1200       H  0.01068442  0.23553154  0.27888913     0.14800
H1201       H  0.93240415  0.13373387  0.20414320     0.14800
C1202       C  0.90459405  0.11590736  0.26264569    -0.24200
H1203       H  0.05141071  0.27276136  0.24002724     0.05000
H1204       H  0.03098431  0.26555815  0.20163033     0.08200
H1205       H  0.06019421  0.24601802  0.21153602     0.08200
H1206       H  0.88336315  0.12199527  0.27271709     0.08200
H1207       H  0.91243007  0.10151339  0.28031740     0.08200
H1208       H  0.89125251  0.09630295  0.24258095     0.05000
C1209       C  0.84543705  0.04192424  0.45827595    -0.20800
C1210       C  0.85722161  0.08010420  0.45683287    -0.07400
C1211       C  0.85217710  0.09764683  0.48338957     0.13500
C1212       C  0.83973477  0.07775448  0.51183873    -0.20900
C1213       C  0.83263410  0.04084557  0.51418918    -0.07400
C1214       C  0.83310611  0.02199002  0.48639087     0.13500
C1215       C  0.82155718  0.98114677  0.48594261    -0.24200
H1216       H  0.84930848  0.02836630  0.43787079     0.14800
H1217       H  0.83821744  0.09201852  0.53279129     0.14800
C1218       C  0.86235593  0.13785538  0.48228825    -0.24200
H1219       H  0.82010001  0.97055237  0.46159334     0.05000
H1220       H  0.79330946  0.96441328  0.49662216     0.08200
H1221       H  0.84211465  0.97659183  0.49885624     0.08200
H1222       H  0.84571854  0.14157695  0.46378771     0.08200
H1223       H  0.89257115  0.15544341  0.47684319     0.08200
H1224       H  0.85678255  0.14744502  0.50508780     0.05000
C1225       C  0.06917849  0.22533602  0.47233607    -0.20800
C1226       C  0.03005540  0.20147377  0.47128705    -0.07400
C1227       C  0.00961143  0.18943523  0.49975268     0.13500
C1228       C  0.02913588  0.19650660  0.52804557    -0.20900
C1229       C  0.06843404  0.21539869  0.52863768    -0.07400
C1230       C  0.08864029  0.23247543  0.50092493     0.13500
C1231       C  0.13069805  0.25543241  0.50116192    -0.24200
H1232       H  0.08478870  0.23569996  0.45057194     0.14800
H1233       H  0.01356044  0.18366109  0.54932705     0.14800
C1234       C  0.96728705  0.16848719  0.50047113    -0.24200
H1235       H  0.14239468  0.26630813  0.47745279     0.05000
H1236       H  0.14184626  0.23774382  0.50913567     0.08200
H1237       H  0.13997115  0.27948034  0.51755399     0.08200
H1238       H  0.95562572  0.14080169  0.48886907     0.08200
H1239       H  0.95717061  0.18525975  0.48836003     0.08200
H1240       H  0.95620989  0.16358148  0.52492339     0.05000
C1241       C  0.89299618  0.00354344  0.33651280    -0.20800
C1242       C  0.87464780  0.02122195  0.34927066    -0.07400
C1243       C  0.83724531  0.99896576  0.36035518     0.13500
C1244       C  0.82193738  0.96012711  0.36353441    -0.20900
C1245       C  0.84297946  0.94340019  0.35516502    -0.07400
C1246       C  0.87746246  0.96487100  0.33912283     0.13500
C1247       C  0.89893810  0.94733822  0.32623899    -0.24200
H1248       H  0.92083900  0.02037324  0.32669533     0.14800
H1249       H  0.79488070  0.94341894  0.37486055     0.14800
C1250       C  0.81424617  0.01612815  0.37057631    -0.24200
H1251       H  0.92457262  0.96779115  0.31326539     0.05000
H1252       H  0.88090061  0.92415038  0.30989008     0.08200
H1253       H  0.90778986  0.93651026  0.34597490     0.08200
H1254       H  0.81042003  0.03056257  0.35032891     0.08200
H1255       H  0.82845175  0.03661713  0.38980110     0.08200
H1256       H  0.78599077  0.99469791  0.37913873     0.05000
C1257       C  0.06399554  0.08356935  0.33312412    -0.20800
C1258       C  0.10119339  0.10293129  0.34368331    -0.07400
C1259       C  0.11781572  0.14161436  0.35069798     0.13500
C1260       C  0.09482115  0.15775407  0.35278564    -0.20900
C1261       C  0.05613987  0.13624225  0.34688838    -0.07400
C1262       C  0.04149004  0.09983681  0.33419225     0.13500
C1263       C  0.00127694  0.07632003  0.32371039    -0.24200
H1264       H  0.05154822  0.05461403  0.32604685     0.14800
H1265       H  0.10637741  0.18600572  0.36170304     0.14800
C1266       C  0.15905311  0.16537457  0.35770532    -0.24200
H1267       H  0.00051319  0.06659367  0.29916808     0.05000
H1268       H  0.98601198  0.09194355  0.32410955     0.08200
H1269       H  0.98648796  0.05160570  0.33923258     0.08200
H1270       H  0.17554393  0.16567871  0.33685343     0.08200
H1271       H  0.16658484  0.15401311  0.37796964     0.08200
H1272       H  0.16710000  0.19468969  0.36332487     0.05000
C1273       C  0.41101679  0.57028480  0.13034839    -0.20800
C1274       C  0.44137276  0.60687541  0.13258984     0.07000
C1275       C  0.45849004  0.62126211  0.16190158     0.13500
C1276       C  0.44223264  0.60003162  0.18904718    -0.20900
C1277       C  0.40861594  0.56553574  0.18725105    -0.07400
C1278       C  0.39405117  0.54944581  0.15742924     0.13500
C1279       C  0.36010189  0.51081967  0.15402040    -0.24200
H1280       H  0.39880791  0.55906816  0.10750973     0.14800
H1281       H  0.45370609  0.61201377  0.21186429     0.14800
C1282       C  0.49299434  0.65936745  0.16452389    -0.24200
H1283       H  0.35399463  0.50218651  0.12894958     0.05000
H1284       H  0.33469019  0.50962929  0.16410412     0.08200
H1285       H  0.36539734  0.49036393  0.16612004     0.08200
H1286       H  0.48628898  0.68083416  0.15693695     0.08200
H1287       H  0.51564422  0.66074253  0.14932168     0.08200
H1288       H  0.50360563  0.66584712  0.18902400     0.05000
C1289       C  0.61354898  0.75314745  0.08605243    -0.20800
C1290       C  0.60138353  0.71903920  0.07067314    -0.07400
C1291       C  0.62460810  0.70326836  0.07027333     0.13500
C1292       C  0.66044401  0.72315024  0.08423502    -0.20900
C1293       C  0.67335713  0.75827896  0.09887495    -0.07400
C1294       C  0.64859415  0.77273770  0.10056668     0.13500
C1295       C  0.65850649  0.80932499  0.11642653    -0.24200
H1296       H  0.59560089  0.76517396  0.08597520     0.14800
H1297       H  0.67881719  0.71161589  0.08287755     0.14800
C1298       C  0.61246285  0.66666949  0.05379781    -0.24200
H1299       H  0.63527482  0.81543757  0.11522335     0.05000
H1300       H  0.68302694  0.83274447  0.10466588     0.08200
H1301       H  0.66441221  0.80833715  0.14171221     0.08200
H1302       H  0.60687002  0.66884754  0.02863587     0.08200
H1303       H  0.58650639  0.64421417  0.06497208     0.08200
H1304       H  0.63435160  0.65867865  0.05503950     0.05000
C1305       C  0.18267276  0.46071723  0.15769160    -0.20800
C1306       C  0.19594000  0.44958194  0.13172336    -0.07400
C1307       C  0.22236589  0.43803077  0.13656370     0.13500
C1308       C  0.23902364  0.44346005  0.16633861    -0.20900
C1309       C  0.22988694  0.46043488  0.19078908    -0.07400
C1310       C  0.19981436  0.46697952  0.18708453     0.13500
C1311       C  0.18707686  0.48240788  0.21360894    -0.24200
H1312       H  0.16175180  0.46875979  0.15403308     0.14800
H1313       H  0.26153011  0.43752809  0.16959809     0.14800
C1314       C  0.23517176  0.42214406  0.11064787    -0.24200
H1315       H  0.16281204  0.48515702  0.20656185     0.05000
H1316       H  0.20993318  0.51059309  0.22069756     0.08200
H1317       H  0.17853742  0.46342491  0.23412782     0.08200
H1318       H  0.26599727  0.43981591  0.10750043     0.08200
H1319       H  0.22128840  0.42014807  0.08794231     0.08200
H1320       H  0.22856613  0.39359351  0.11718398     0.05000
C1321       C  0.30305209  0.56668000  0.99963424    -0.20800
C1322       C  0.28617501  0.53716673  0.02109638    -0.07400
C1323       C  0.30904524  0.52669026  0.03757607     0.13500
C1324       C  0.34836045  0.54849902  0.03482458    -0.20900
C1325       C  0.36530567  0.58057385  0.01607399    -0.07400
C1326       C  0.34235063  0.58808853  0.99658482     0.13500
C1327       C  0.35867622  0.61977290  0.97357358    -0.24200
H1328       H  0.28562469  0.57437076  0.98644014     0.14800
H1329       H  0.36588580  0.54282662  0.04997331     0.14800
C1330       C  0.29227266  0.49468761  0.06033774    -0.24200
H1331       H  0.34865289  0.63926295  0.97955852     0.05000
H1332       H  0.34903495  0.60861745  0.94948693     0.08200
H1333       H  0.38984174  0.63532787  0.97351205     0.08200
H1334       H  0.27289072  0.46840375  0.04768158     0.08200
H1335       H  0.27658565  0.49999137  0.07902939     0.08200
H1336       H  0.31417913  0.49087098  0.07180728     0.05000
C1337       C  0.06285308  0.36924015  0.10083329    -0.20800
C1338       C  0.05753479  0.37281858  0.06873907    -0.07400
C1339       C  0.03453954  0.34038725  0.05078902     0.13500
C1340       C  0.01858848  0.30508777  0.06504570    -0.20900
C1341       C  0.02650672  0.30137726  0.09644294    -0.07400
C1342       C  0.04816013  0.33385594  0.11477005     0.13500
C1343       C  0.05646788  0.33117978  0.14875945    -0.24200
H1344       H  0.08096299  0.39415078  0.11445963     0.14800
H1345       H  0.00218527  0.28012453  0.05094453     0.14800
C1346       C  0.02794683  0.34296063  0.01634571    -0.24200
H1347       H  0.07310288  0.35923083  0.15983920     0.05000
H1348       H  0.07281037  0.31675267  0.15073224     0.08200
H1349       H  0.02972080  0.31528137  0.16201944     0.08200
H1350       H  0.05496161  0.35556763  0.00327779     0.08200
H1351       H  0.01502340  0.36056592  0.01325574     0.08200
H1352       H  0.00885961  0.31501462  0.00589642     0.05000
C1353       C  0.22101242  0.59310603  0.31657477    -0.20800
C1354       C  0.18276430  0.57041470  0.30981484    -0.07400
C1355       C  0.16731849  0.53123937  0.30812780     0.13500
C1356       C  0.19177388  0.51684373  0.30589589    -0.20900
C1357       C  0.23089272  0.54080753  0.30743439    -0.07400
C1358       C  0.24494876  0.57849852  0.31675404     0.13500
C1359       C  0.28537641  0.60454669  0.32552272    -0.24200
H1360       H  0.23277144  0.62295029  0.31981033     0.14800
H1361       H  0.18046586  0.48748071  0.30054209     0.14800
C1362       C  0.12553219  0.50492057  0.30753393    -0.24200
H1363       H  0.28663862  0.61802469  0.34852606     0.05000
H1364       H  0.29928185  0.62658650  0.30741273     0.08200
H1365       H  0.30113258  0.58964673  0.32830309     0.08200
H1366       H  0.11264502  0.51116306  0.28759110     0.08200
H1367       H  0.11303880  0.50809320  0.32971666     0.08200
H1368       H  0.11837457  0.47532873  0.30546060     0.05000
C1369       C  0.08858251  0.56516590  0.16658516    -0.20800
C1370       C  0.09245119  0.54968350  0.19442942    -0.07400
C1371       C  0.09827379  0.51903571  0.19288518     0.13500
C1372       C  0.10515940  0.50780357  0.16361265    -0.20900
C1373       C  0.10611902  0.52666051  0.13613903    -0.07400
C1374       C  0.09548396  0.55407318  0.13734113     0.13500
C1375       C  0.09514694  0.57432884  0.10830637    -0.24200
H1376       H  0.08454998  0.58901443  0.16792757     0.14800
H1377       H  0.11238245  0.48608194  0.16240970     0.14800
C1378       C  0.10110500  0.50088310  0.22228897    -0.24200
H1379       H  0.08735575  0.59579820  0.11368109     0.05000
H1380       H  0.07436785  0.55411289  0.09131880     0.08200
H1381       H  0.12356254  0.58859272  0.09748822     0.08200
H1382       H  0.07576699  0.49213922  0.23709706     0.08200
H1383       H  0.12666687  0.52109942  0.23535679     0.08200
H1384       H  0.10291780  0.47560600  0.21697510     0.05000
C1385       C  0.31076584  0.80405461  0.29947621    -0.20800
C1386       C  0.33181487  0.78659106  0.30511094    -0.07400
C1387       C  0.31260594  0.74852897  0.31389442     0.13500
C1388       C  0.27325627  0.72790698  0.31221511    -0.20900
C1389       C  0.25256648  0.74399689  0.30128847    -0.07400
C1390       C  0.27134075  0.78302531  0.29668413     0.13500
C1391       C  0.25052254  0.80191707  0.28585717    -0.24200
H1392       H  0.32538416  0.83351554  0.29381426     0.14800
H1393       H  0.25874292  0.69813102  0.31679246     0.14800
C1394       C  0.33334544  0.72917165  0.32423441    -0.24200
H1395       H  0.26956480  0.83245607  0.28277199     0.05000
H1396       H  0.22870256  0.79766743  0.30342198     0.08200
H1397       H  0.23709916  0.78991073  0.26293518     0.08200
H1398       H  0.35248932  0.74504031  0.34392509     0.08200
H1399       H  0.34978270  0.72683437  0.30453816     0.08200
H1400       H  0.31371040  0.70035503  0.33257245     0.05000
C1401       C  0.52760246  0.80105673  0.17314611    -0.20800
C1402       C  0.50584653  0.81837254  0.17313787    -0.07400
C1403       C  0.49323610  0.82441526  0.14417104     0.13500
C1404       C  0.49836710  0.80856692  0.11669914    -0.20900
C1405       C  0.51536495  0.78661979  0.11754960    -0.07400
C1406       C  0.53194437  0.78443762  0.14577478     0.13500
C1407       C  0.55163781  0.76240795  0.14857096    -0.24200
H1408       H  0.53812254  0.79713073  0.19521137     0.14800
H1409       H  0.48606141  0.81053412  0.09490520     0.14800
C1410       C  0.47363701  0.84670888  0.14209499    -0.24200
H1411       H  0.58145765  0.78154360  0.15495511     0.05000
H1412       H  0.55073366  0.74751895  0.12659210     0.08200
H1413       H  0.53825673  0.74136328  0.16744855     0.08200
H1414       H  0.49120199  0.87455756  0.15324949     0.08200
H1415       H  0.44581300  0.83188053  0.15382894     0.08200
H1416       H  0.46881258  0.85123690  0.11731747     0.05000
C1417       C  0.42792708  0.70869966  0.31243632    -0.20800
C1418       C  0.45135489  0.72687795  0.28659376    -0.07400
C1419       C  0.45843290  0.70582341  0.26429609     0.13500
C1420       C  0.43950799  0.66679679  0.26686242    -0.20900
C1421       C  0.41328330  0.64820113  0.29097147    -0.07400
C1422       C  0.40885175  0.66947567  0.31499509     0.13500
C1423       C  0.38266265  0.65178310  0.34242720    -0.24200
H1424       H  0.42210308  0.72486447  0.32934008     0.14800
H1425       H  0.44299957  0.65049370  0.24853480     0.14800
C1426       C  0.48385042  0.72439177  0.23647287    -0.24200
H1427       H  0.36085158  0.65989834  0.34228470     0.05000
H1428       H  0.39875268  0.66191368  0.36467345     0.08200
H1429       H  0.36864811  0.62088280  0.34207321     0.08200
H1430       H  0.51232239  0.74543521  0.24483655     0.08200
H1431       H  0.47253990  0.73846925  0.22185715     0.08200
H1432       H  0.48644985  0.70391269  0.22131305     0.05000
C1433       C  0.25892990  0.93920222  0.04731799    -0.20800
C1434       C  0.26421285  0.91524224  0.06680191    -0.07400
C1435       C  0.25440423  0.91246533  0.09894792     0.13500
C1436       C  0.23639156  0.93123147  0.11034493    -0.20900
C1437       C  0.22844369  0.95302881  0.09035305    -0.07400
C1438       C  0.24120206  0.95832000  0.05880512     0.13500
C1439       C  0.23343785  0.98166850  0.03661723    -0.24200
H1440       H  0.26656282  0.94113168  0.02266942     0.14800
H1441       H  0.22642037  0.92707969  0.13445900     0.14800
C1442       C  0.26129910  0.88814612  0.12079438    -0.24200
H1443       H  0.24447439  0.98205990  0.01263571     0.05000
H1444       H  0.24705276  0.01089782  0.04543196     0.08200
H1445       H  0.20269754  0.97018921  0.03484644     0.08200
H1446       H  0.29182001  0.89809771  0.12158415     0.08200
H1447       H  0.24607633  0.85879269  0.11225154     0.08200
H1448       H  0.25159671  0.88872391  0.14511746     0.05000
C1449       C  0.17684266  0.66914516  0.01568318    -0.20800
C1450       C  0.21617332  0.69070015  0.01278219    -0.07400
C1451       C  0.23636490  0.67218316  0.00667921     0.13500
C1452       C  0.21808491  0.63320702  0.00883684    -0.20900
C1453       C  0.17969701  0.61180503  0.01628799    -0.07400
C1454       C  0.15826772  0.62971422  0.01732354     0.13500
C1455       C  0.11644664  0.60771408  0.02211570    -0.24200
H1456       H  0.16104240  0.68319264  0.01957848     0.14800
H1457       H  0.23458457  0.61960345  0.00679309     0.14800
C1458       C  0.27764577  0.69308830  0.99917032    -0.24200
H1459       H  0.10417413  0.62613106  0.02323120     0.05000
H1460       H  0.10960206  0.59186710  0.04429913     0.08200
H1461       H  0.10320711  0.58778432  0.00226072     0.08200
H1462       H  0.29349205  0.68937857  0.01840362     0.08200
H1463       H  0.28828527  0.72325674  0.99589851     0.08200
H1464       H  0.28274584  0.68221342  0.97685914     0.05000
C1465       C  0.15539130  0.69868677  0.15326810    -0.20800
C1466       C  0.16054118  0.72046706  0.18027631    -0.07400
C1467       C  0.17582936  0.75947741  0.17707113     0.13500
C1468       C  0.19084608  0.77622816  0.14784052    -0.20900
C1469       C  0.18991868  0.75464273  0.12194259    -0.07400
C1470       C  0.17001154  0.71533920  0.12415965     0.13500
C1471       C  0.16679475  0.69109920  0.09633861    -0.24200
H1472       H  0.14247148  0.66861729  0.15546791     0.14800
H1473       H  0.20609308  0.80639396  0.14595153     0.14800
C1474       C  0.17896749  0.78382843  0.20466791    -0.24200
H1475       H  0.15014436  0.66090769  0.10206987     0.05000
H1476       H  0.19508904  0.69732393  0.08854579     0.08200
H1477       H  0.15266377  0.69653614  0.07671594     0.08200
H1478       H  0.19622450  0.78145298  0.22326837     0.08200
H1479       H  0.15054176  0.77494722  0.21410920     0.08200
H1480       H  0.19233081  0.81371537  0.19798496     0.05000
C1481       C  0.41863819  0.90155206  0.17497880    -0.20800
C1482       C  0.39576332  0.88189484  0.20059926    -0.07400
C1483       C  0.35636266  0.86251947  0.19721815     0.13500
C1484       C  0.34093094  0.85815278  0.16729328    -0.20900
C1485       C  0.36406921  0.87304634  0.14083646    -0.07400
C1486       C  0.40304940  0.89772608  0.14492441     0.13500
C1487       C  0.42848278  0.91774205  0.11755193    -0.24200
H1488       H  0.44889017  0.91664564  0.17776814     0.14800
H1489       H  0.31082431  0.84062658  0.16420475     0.14800
C1490       C  0.33070642  0.84402662  0.22485858    -0.24200
H1491       H  0.45827698  0.93494959  0.12492068     0.05000
H1492       H  0.41997363  0.93656912  0.10672986     0.08200
H1493       H  0.42660334  0.89728116  0.09974602     0.08200
H1494       H  0.33629602  0.86536779  0.24324071     0.08200
H1495       H  0.33547868  0.82208893  0.23463625     0.08200
H1496       H  0.30063946  0.83059209  0.21818809     0.05000
C1497       C  0.37860837  0.77220734  0.00203751    -0.20800
C1498       C  0.39291736  0.80455412  0.02068075    -0.07400
C1499       C  0.43012081  0.82139331  0.03167137     0.13500
C1500       C  0.45033296  0.80281910  0.02709741    -0.20900
C1501       C  0.43338583  0.76721392  0.01292487    -0.07400
C1502       C  0.39828041  0.75314971  0.99816134     0.13500
C1503       C  0.38028304  0.71759205  0.97919653    -0.24200
H1504       H  0.35088216  0.76043917  0.99219832     0.14800
H1505       H  0.47773269  0.81414953  0.03779668     0.14800
C1506       C  0.44700607  0.85670578  0.05093129    -0.24200
H1507       H  0.37359928  0.72318456  0.95533517     0.05000
H1508       H  0.35385872  0.69679152  0.99091700     0.08200
H1509       H  0.39894760  0.70577323  0.97626673     0.08200
H1510       H  0.43006432  0.85159387  0.07260681     0.08200
H1511       H  0.44715910  0.87940349  0.03719012     0.08200
H1512       H  0.47634644  0.86603266  0.05788759     0.05000
C1513       C  0.50650730  0.88363904  0.42830872    -0.20800
C1514       C  0.50921375  0.85256531  0.43795454    -0.07400
C1515       C  0.50819348  0.82742137  0.41452700     0.13500
C1516       C  0.50344647  0.83352837  0.38288556    -0.20900
C1517       C  0.49889833  0.86342787  0.37381846    -0.07400
C1518       C  0.50112853  0.88920455  0.39669707     0.13500
C1519       C  0.49867714  0.92300207  0.38781530    -0.24200
H1520       H  0.50786287  0.90354245  0.44568075     0.14800
H1521       H  0.50203081  0.81400793  0.36504593     0.14800
C1522       C  0.51083004  0.79341005  0.42225867    -0.24200
H1523       H  0.50264504  0.94117970  0.40848968     0.05000
H1524       H  0.47068667  0.91416567  0.37770302     0.08200
H1525       H  0.52082127  0.93983631  0.37026937     0.08200
H1526       H  0.48725196  0.77457822  0.43794602     0.08200
H1527       H  0.53811327  0.80205006  0.43373783     0.08200
H1528       H  0.50916581  0.77707550  0.40086698     0.05000
C1529       C  0.61098240  0.91880847  0.59529142    -0.20800
C1530       C  0.60667289  0.91241418  0.56270175    -0.07400
C1531       C  0.63901753  0.92731198  0.54334424     0.13500
C1532       C  0.67484793  0.94641942  0.55718100    -0.20900
C1533       C  0.67908791  0.94992365  0.58996365    -0.07400
C1534       C  0.64683251  0.93685945  0.60919269     0.13500
C1535       C  0.65026205  0.94093708  0.64442996    -0.24200
H1536       H  0.58617009  0.90727066  0.61012473     0.14800
H1537       H  0.69961080  0.95613580  0.54248668     0.14800
C1538       C  0.63576036  0.92216647  0.50816048    -0.24200
H1539       H  0.62240515  0.92973449  0.65596339     0.05000
H1540       H  0.66775476  0.97095289  0.65081937     0.08200
H1541       H  0.66356387  0.92550262  0.65372631     0.08200
H1542       H  0.61908792  0.93409204  0.49870476     0.08200
H1543       H  0.62175516  0.89202132  0.50202455     0.08200
H1544       H  0.66373627  0.93637240  0.49652070     0.05000
C1545       C  0.49709007  0.63491057  0.89546249    -0.20800
C1546       C  0.49840153  0.66168186  0.87500562    -0.07400
C1547       C  0.50617093  0.69681195  0.88697515     0.13500
C1548       C  0.51122085  0.70369629  0.91931524    -0.20900
C1549       C  0.50865560  0.67650603  0.94025563    -0.07400
C1550       C  0.50240306  0.64175280  0.92787834     0.13500
C1551       C  0.50052939  0.61114149  0.94811673    -0.24200
H1552       H  0.49162721  0.60828624  0.88592978     0.14800
H1553       H  0.51627705  0.73036803  0.92830391     0.14800
C1554       C  0.50717666  0.72657524  0.86620632    -0.24200
H1555       H  0.49612535  0.58662812  0.93393893     0.05000
H1556       H  0.47663920  0.60103248  0.96486349     0.08200
H1557       H  0.52734211  0.62164698  0.96100910     0.08200
H1558       H  0.48007110  0.71511249  0.85370395     0.08200
H1559       H  0.53059221  0.73637931  0.84903121     0.08200
H1560       H  0.51151040  0.75136526  0.87991063     0.05000
C1561       C  0.48423645  0.69176710  0.65043650    -0.20800
C1562       C  0.49632744  0.71399261  0.67768520    -0.07400
C1563       C  0.51847657  0.75338006  0.67483494     0.13500
C1564       C  0.52513420  0.76957447  0.64487957    -0.20900
C1565       C  0.50990986  0.74741462  0.61796509    -0.07400
C1566       C  0.49085585  0.70808148  0.62058099     0.13500
C1567       C  0.47574466  0.68339447  0.59187855    -0.24200
H1568       H  0.46814494  0.66159753  0.65260931     0.14800
H1569       H  0.53911576  0.79971255  0.64274275     0.14800
C1570       C  0.53244386  0.77864894  0.70331222    -0.24200
H1571       H  0.46214113  0.65335078  0.59795469     0.05000
H1572       H  0.49913911  0.68997610  0.57527791     0.08200
H1573       H  0.45453861  0.68797323  0.58007294     0.08200
H1574       H  0.55237228  0.77350869  0.71664659     0.08200
H1575       H  0.50839944  0.77340371  0.71867207     0.08200
H1576       H  0.54746031  0.80863201  0.69670328     0.05000
C1577       C  0.10575460  0.63602563  0.43340413    -0.20800
C1578       C  0.11829097  0.67246170  0.44473690    -0.07400
C1579       C  0.12452487  0.70063005  0.42293848     0.13500
C1580       C  0.11879865  0.69166835  0.39077303    -0.20900
C1581       C  0.10758666  0.65550728  0.37928771    -0.07400
C1582       C  0.10052239  0.62711945  0.40128393     0.13500
C1583       C  0.08823343  0.58742180  0.39168553    -0.24200
H1584       H  0.10092270  0.61418323  0.44979920     0.14800
H1585       H  0.12406462  0.71365436  0.37438142     0.14800
C1586       C  0.13708433  0.74019526  0.43299416    -0.24200
H1587       H  0.08370116  0.56932083  0.41228933     0.05000
H1588       H  0.11016920  0.58687077  0.37681320     0.08200
H1589       H  0.06123341  0.57500871  0.37877220     0.08200
H1590       H  0.16558876  0.75339575  0.44338495     0.08200
H1591       H  0.11690004  0.74028173  0.45035378     0.08200
H1592       H  0.13859626  0.75776887  0.41284996     0.05000
C1593       C  0.30690336  0.80295069  0.52209364    -0.20800
C1594       C  0.28572043  0.76594490  0.51111574    -0.07400
C1595       C  0.30435294  0.74890268  0.49705392     0.13500
C1596       C  0.34370424  0.76741795  0.49795392    -0.20900
C1597       C  0.36465430  0.80188860  0.51365697    -0.07400
C1598       C  0.34626961  0.82080589  0.52439799     0.13500
C1599       C  0.36751658  0.85783760  0.54123370    -0.24200
H1600       H  0.29241004  0.81621392  0.53226590     0.14800
H1601       H  0.35792146  0.75314429  0.48933892     0.14800
C1602       C  0.28265008  0.71042113  0.48263277    -0.24200
H1603       H  0.34872686  0.86845477  0.54860652     0.05000
H1604       H  0.38942518  0.87877501  0.52540343     0.08200
H1605       H  0.38104177  0.85489829  0.56263556     0.08200
H1606       H  0.26420534  0.71037234  0.46374731     0.08200
H1607       H  0.26514472  0.68970292  0.50076827     0.08200
H1608       H  0.30159770  0.70147230  0.47215256     0.05000
C1609       C  0.07132920  0.73169067  0.60023529    -0.20800
C1610       C  0.06227972  0.71423851  0.57066316    -0.07400
C1611       C  0.03294803  0.71348362  0.55322774     0.13500
C1612       C  0.01512294  0.73260944  0.56488860    -0.20900
C1613       C  0.02655656  0.75290948  0.59333917    -0.07400
C1614       C  0.05387067  0.75088225  0.61187692     0.13500
C1615       C  0.06510681  0.76911378  0.64391394    -0.24200
H1616       H  0.09368829  0.73190153  0.61365140     0.14800
H1617       H  0.99399402  0.73376693  0.55076118     0.14800
C1618       C  0.02204207  0.69435099  0.52165052    -0.24200
H1619       H  0.08419331  0.76175306  0.65607700     0.05000
H1620       H  0.03973633  0.75960890  0.65885963     0.08200
H1621       H  0.08025207  0.79997083  0.64185379     0.08200
H1622       H  0.01250942  0.66424672  0.52436376     0.08200
H1623       H  0.04653966  0.70723251  0.50543275     0.08200
H1624       H  0.99887362  0.69664949  0.51087657     0.05000
C1625       C  0.30864206  0.88353907  0.89258358    -0.20800
C1626       C  0.32774140  0.86672347  0.87909179    -0.07400
C1627       C  0.33528324  0.84313615  0.89757945     0.13500
C1628       C  0.32416163  0.83752444  0.92917672    -0.20900
C1629       C  0.30501336  0.85415691  0.94251378    -0.07400
C1630       C  0.29737013  0.87766826  0.92427001     0.13500
C1631       C  0.27780598  0.89674111  0.93834360    -0.24200
H1632       H  0.30221531  0.90098424  0.87816321     0.14800
H1633       H  0.33021804  0.81979968  0.94362512     0.14800
C1634       C  0.35325235  0.82228508  0.88378466    -0.24200
H1635       H  0.27418643  0.91437512  0.92084147     0.05000
H1636       H  0.29453511  0.91493033  0.95825751     0.08200
H1637       H  0.24959563  0.87545628  0.94707395     0.08200
H1638       H  0.38211545  0.84235034  0.87553063     0.08200
H1639       H  0.33625999  0.80465526  0.86374930     0.08200
H1640       H  0.35528507  0.80369000  0.90130251     0.05000
C1641       C  0.43672815  0.88187558  0.63895274    -0.20800
C1642       C  0.45306816  0.85929647  0.63668046    -0.07400
C1643       C  0.46134389  0.84648007  0.66443203     0.13500
C1644       C  0.44854240  0.85221755  0.69328506    -0.20900
C1645       C  0.42845773  0.87113930  0.69530476    -0.07400
C1646       C  0.42406002  0.88776221  0.66811645     0.13500
C1647       C  0.40346508  0.90907603  0.66956034    -0.24200
H1648       H  0.43111210  0.89234898  0.61765114     0.14800
H1649       H  0.45132697  0.83882015  0.71393181     0.14800
C1650       C  0.48291945  0.82601829  0.66378317    -0.24200
H1651       H  0.40219580  0.92002208  0.64614436     0.05000
H1652       H  0.41808211  0.93312927  0.68599817     0.08200
H1653       H  0.37425693  0.89057055  0.67796964     0.08200
H1654       H  0.51020154  0.84328038  0.65156801     0.08200
H1655       H  0.46667356  0.79870404  0.65157977     0.08200
H1656       H  0.48890730  0.82035245  0.68788580     0.05000
C1657       C  0.46814563  0.78511290  0.79109451    -0.20800
C1658       C  0.44723613  0.74830812  0.80202304    -0.07400
C1659       C  0.41499372  0.73796434  0.82062716     0.13500
C1660       C  0.40041156  0.76189280  0.82282417    -0.20900
C1661       C  0.41802832  0.79638763  0.80755021    -0.07400
C1662       C  0.45423388  0.80976617  0.79440529     0.13500
C1663       C  0.47720325  0.84911944  0.78239793    -0.24200
H1664       H  0.49374625  0.79362646  0.77786762     0.14800
H1665       H  0.37351572  0.75233775  0.83419805     0.14800
C1666       C  0.39481298  0.70083225  0.83676811    -0.24200
H1667       H  0.50407949  0.85440579  0.77170730     0.05000
H1668       H  0.48383545  0.86903494  0.80224876     0.08200
H1669       H  0.46145353  0.85474346  0.76449232     0.08200
H1670       H  0.41433173  0.69796598  0.85271849     0.08200
H1671       H  0.38394903  0.67821581  0.81892913     0.08200
H1672       H  0.37076486  0.69772288  0.85104955     0.05000
C1673       C  0.27444286  0.81898364  0.65868210    -0.20800
C1674       C  0.25396420  0.80305525  0.68629156    -0.07400
C1675       C  0.21508229  0.77715880  0.68467752     0.13500
C1676       C  0.19820836  0.76532519  0.65511777    -0.20900
C1677       C  0.21950674  0.77854187  0.62744118    -0.07400
C1678       C  0.25760563  0.80683903  0.62914021     0.13500
C1679       C  0.28130493  0.82156685  0.59993241    -0.24200
H1680       H  0.30425094  0.83904522  0.66022998     0.14800
H1681       H  0.16914457  0.74303007  0.65359307     0.14800
C1682       C  0.19216014  0.75952016  0.71389684    -0.24200
H1683       H  0.31055215  0.84368550  0.60544966     0.05000
H1684       H  0.26895959  0.83362503  0.58410698     0.08200
H1685       H  0.28241873  0.79844278  0.58763058     0.08200
H1686       H  0.19228471  0.78139444  0.72919901     0.08200
H1687       H  0.20416648  0.74497277  0.72700088     0.08200
H1688       H  0.16249227  0.73874642  0.70820737     0.05000
C1689       C  0.14135771  0.47259643  0.88725695    -0.20800
C1690       C  0.11102910  0.47676179  0.87809255    -0.07400
C1691       C  0.08554562  0.47520196  0.90098858     0.13500
C1692       C  0.09157262  0.47039943  0.93258451    -0.20900
C1693       C  0.12292751  0.46780538  0.94224087    -0.07400
C1694       C  0.14791931  0.46844361  0.91887450     0.13500
C1695       C  0.18195928  0.46555539  0.92658867    -0.24200
H1696       H  0.16087574  0.47374076  0.86947443     0.14800
H1697       H  0.07173954  0.46943220  0.94990317     0.14800
C1698       C  0.05163084  0.47781356  0.89224804    -0.24200
H1699       H  0.19783124  0.46627842  0.90513640     0.05000
H1700       H  0.17317336  0.43873352  0.93866022     0.08200
H1701       H  0.20142301  0.48943069  0.94173853     0.08200
H1702       H  0.03442538  0.45567699  0.87480710     0.08200
H1703       H  0.06058369  0.50564849  0.88211010     0.08200
H1704       H  0.03360990  0.47415512  0.91300092     0.05000
C1705       C  0.08309940  0.56396063  0.67916893    -0.20800
C1706       C  0.10865727  0.58625838  0.70254494    -0.07400
C1707       C  0.13366082  0.62466998  0.69686735     0.13500
C1708       C  0.13524044  0.63885810  0.66701033    -0.20900
C1709       C  0.11329387  0.61555343  0.64245245    -0.07400
C1710       C  0.08515895  0.57830709  0.64887796     0.13500
C1711       C  0.05928607  0.55309098  0.62352129    -0.24200
H1712       H  0.06408158  0.53452471  0.68365782     0.14800
H1713       H  0.15599355  0.66781299  0.66222568     0.14800
C1714       C  0.16120661  0.65095341  0.72099620    -0.24200
H1715       H  0.03969091  0.52458145  0.63249443     0.05000
H1716       H  0.07582333  0.55061710  0.60398787     0.08200
H1717       H  0.04230428  0.56482026  0.61439223     0.08200
H1718       H  0.15966013  0.63709253  0.74346406     0.08200
H1719       H  0.15550181  0.67393172  0.72594662     0.08200
H1720       H  0.19030181  0.66307738  0.71181306     0.05000
C1721       C  0.22620413  0.66157224  0.82390904    -0.20800
C1722       C  0.18836917  0.64444630  0.81513315    -0.07400
C1723       C  0.17262655  0.66738743  0.80961616     0.13500
C1724       C  0.19668209  0.70644718  0.80701766    -0.20900
C1725       C  0.23561257  0.72278170  0.81101809    -0.07400
C1726       C  0.24979831  0.70039972  0.82250458     0.13500
C1727       C  0.29030398  0.71646817  0.83173481    -0.24200
H1728       H  0.23821218  0.64433174  0.82946422     0.14800
H1729       H  0.18551628  0.72366102  0.79914917     0.14800
C1730       C  0.13105603  0.65085988  0.80464401    -0.24200
H1731       H  0.29173233  0.70817374  0.85620936     0.05000
H1732       H  0.30636782  0.74741240  0.83098093     0.08200
H1733       H  0.30395613  0.70551297  0.81576359     0.08200
H1734       H  0.11566643  0.63529202  0.82600000     0.08200
H1735       H  0.12112956  0.63147025  0.78424605     0.08200
H1736       H  0.12384170  0.67284904  0.80032322     0.05000
C1737       C  0.30867398  0.52586686  0.79821948    -0.20800
C1738       C  0.32933832  0.56199901  0.81119213    -0.07400
C1739       C  0.30972697  0.57671444  0.82743926     0.13500
C1740       C  0.27064073  0.55903843  0.82448714    -0.20900
C1741       C  0.25071382  0.52656898  0.80616023    -0.07400
C1742       C  0.26943139  0.50825589  0.79480185     0.13500
C1743       C  0.24873534  0.47223759  0.77647956    -0.24200
H1744       H  0.32355308  0.51323699  0.78767219     0.14800
H1745       H  0.25604151  0.57238471  0.83439795     0.14800
C1746       C  0.32922411  0.61113093  0.84760888    -0.24200
H1747       H  0.26766452  0.46180309  0.76909118     0.05000
H1748       H  0.23622374  0.47649918  0.75502081     0.08200
H1749       H  0.22608481  0.45053509  0.79130951     0.08200
H1750       H  0.32382074  0.63279196  0.83813986     0.08200
H1751       H  0.35986969  0.62205373  0.84897193     0.08200
H1752       H  0.31782227  0.60433242  0.87191654     0.05000
C1753       C  0.33193601  0.50495941  0.43293162    -0.20800
C1754       C  0.29986312  0.47224836  0.44327396    -0.07400
C1755       C  0.27686781  0.44466484  0.42136405     0.13500
C1756       C  0.28613935  0.45081698  0.38935588    -0.20900
C1757       C  0.31765242  0.48414518  0.37861996    -0.07400
C1758       C  0.34101533  0.51152223  0.40088368     0.13500
C1759       C  0.37451662  0.54826457  0.39125147    -0.24200
H1760       H  0.34952932  0.52596780  0.45011019     0.14800
H1761       H  0.26826533  0.42949984  0.37252965     0.14800
C1762       C  0.24314103  0.40853078  0.43173084    -0.24200
H1763       H  0.38840908  0.56677071  0.41183273     0.05000
H1764       H  0.36552934  0.56322092  0.37520024     0.08200
H1765       H  0.39564718  0.54333602  0.37934176     0.08200
H1766       H  0.22251048  0.41426603  0.44355658     0.08200
H1767       H  0.25201257  0.39395521  0.44831923     0.08200
H1768       H  0.22887461  0.38949539  0.41152168     0.05000
C1769       C  0.17372792  0.52587059  0.53391093    -0.20800
C1770       C  0.20888522  0.54076247  0.51893577    -0.07400
C1771       C  0.22282397  0.57422156  0.50176982     0.13500
C1772       C  0.20341007  0.59385148  0.50279269    -0.20900
C1773       C  0.17141495  0.58195513  0.52181608    -0.07400
C1774       C  0.15522866  0.54652553  0.53621595     0.13500
C1775       C  0.12084943  0.53225974  0.55669610    -0.24200
H1776       H  0.16272957  0.49994059  0.54673407     0.14800
H1777       H  0.21554517  0.62078570  0.49135488     0.14800
C1778       C  0.25923249  0.59052022  0.48381474    -0.24200
H1779       H  0.11216299  0.50428280  0.56647416     0.05000
H1780       H  0.09713606  0.52994247  0.54274557     0.08200
H1781       H  0.12686421  0.55183162  0.57670055     0.08200
H1782       H  0.25853313  0.56937600  0.46720588     0.08200
H1783       H  0.28270147  0.59954184  0.50051197     0.08200
H1784       H  0.26467307  0.61544095  0.47008371     0.05000
C1785       C  0.34543677  0.50831168  0.66449992    -0.20800
C1786       C  0.36783500  0.52495756  0.63793164    -0.07400
C1787       C  0.40677591  0.54978672  0.64154257     0.13500
C1788       C  0.42172944  0.56004172  0.67190858    -0.20900
C1789       C  0.39835539  0.54687486  0.69841273    -0.07400
C1790       C  0.36019257  0.51939276  0.69477176     0.13500
C1791       C  0.33435338  0.50425546  0.72267517    -0.24200
H1792       H  0.31565811  0.48889553  0.66154863     0.14800
H1793       H  0.45079679  0.58177657  0.67480835     0.14800
C1794       C  0.43169405  0.56876887  0.61369118    -0.24200
H1795       H  0.30557248  0.48225616  0.71575570     0.05000
H1796       H  0.33234454  0.52726175  0.73419592     0.08200
H1797       H  0.34542220  0.49194186  0.73954679     0.08200
H1798       H  0.42102254  0.58487369  0.60123974     0.08200
H1799       H  0.43172227  0.54761993  0.59754104     0.08200
H1800       H  0.46116031  0.58848444  0.62079525     0.05000
C1801       C  0.17408863  0.47915772  0.62486117    -0.20800
C1802       C  0.19452050  0.46051471  0.62460581    -0.07400
C1803       C  0.19843302  0.44506661  0.65272443     0.13500
C1804       C  0.18447787  0.45131952  0.68092951    -0.20900
C1805       C  0.16832209  0.47406328  0.68159023    -0.07400
C1806       C  0.16142743  0.48669200  0.65308114     0.13500
C1807       C  0.14179144  0.50902884  0.65233348    -0.24200
H1808       H  0.17133886  0.49115405  0.60321432     0.14800
H1809       H  0.18928103  0.44132336  0.70287462     0.14800
C1810       C  0.22044902  0.42529436  0.65350795    -0.24200
H1811       H  0.13713847  0.51490439  0.62786807     0.05000
H1812       H  0.15890777  0.53630435  0.66442294     0.08200
H1813       H  0.11398470  0.49318643  0.66407954     0.08200
H1814       H  0.24989654  0.44516047  0.64663161     0.08200
H1815       H  0.20796388  0.40118764  0.63694691     0.08200
H1816       H  0.22067881  0.41472446  0.67736242     0.05000
C1817       C  0.37235363  0.62816144  0.49980549    -0.20800
C1818       C  0.38951422  0.60938657  0.51231949    -0.07400
C1819       C  0.42884679  0.62876754  0.51586217     0.13500
C1820       C  0.44907772  0.66778045  0.51173967    -0.20900
C1821       C  0.43040899  0.68734888  0.50476848    -0.07400
C1822       C  0.39229407  0.66690641  0.49581538     0.13500
C1823       C  0.37154778  0.68541250  0.48366455    -0.24200
H1824       H  0.34246067  0.61278895  0.49540530     0.14800
H1825       H  0.47866247  0.68331452  0.51763123     0.14800
C1826       C  0.44891771  0.60893528  0.52623165    -0.24200
H1827       H  0.35860804  0.67282741  0.46063685     0.05000
H1828       H  0.39042535  0.71581659  0.47995297     0.08200
H1829       H  0.34901434  0.68110758  0.50049371     0.08200
H1830       H  0.44453727  0.58719926  0.50860956     0.08200
H1831       H  0.43779585  0.59544077  0.54920781     0.08200
H1832       H  0.47959726  0.62847837  0.52869678     0.05000
C1833       C  0.25526543  0.34192297  0.54380351    -0.20800
C1834       C  0.26921987  0.37212975  0.56490596    -0.07400
C1835       C  0.26778768  0.36533936  0.59753179     0.13500
C1836       C  0.24781383  0.32834947  0.60844941    -0.20900
C1837       C  0.23168240  0.29812179  0.58732791    -0.07400
C1838       C  0.23782535  0.30499629  0.55472319     0.13500
C1839       C  0.22425020  0.27331907  0.53146386    -0.24200
H1840       H  0.25704971  0.34723362  0.51875006     0.14800
H1841       H  0.24375681  0.32300985  0.63349451     0.14800
C1842       C  0.28560934  0.39713111  0.62078576    -0.24200
H1843       H  0.22876482  0.28327686  0.50678276     0.05000
H1844       H  0.19394935  0.25373085  0.53518670     0.08200
H1845       H  0.23955963  0.25805422  0.53505481     0.08200
H1846       H  0.27428462  0.41598852  0.61750153     0.08200
H1847       H  0.31644104  0.41320744  0.61688247     0.08200
H1848       H  0.28028044  0.38711734  0.64545698     0.05000
C1849       C  0.87452581  0.63270465  0.87990164    -0.20800
C1850       C  0.88470358  0.62730077  0.90990171    -0.07400
C1851       C  0.91536992  0.65723077  0.92540054     0.13500
C1852       C  0.93354024  0.69280814  0.91148001    -0.20900
C1853       C  0.92101361  0.69906667  0.88278450    -0.07400
C1854       C  0.89224918  0.66824941  0.86611890     0.13500
C1855       C  0.87984547  0.67270832  0.83398424    -0.24200
H1856       H  0.85123002  0.60938337  0.86796144     0.14800
H1857       H  0.95549100  0.71638379  0.92430764     0.14800
C1858       C  0.92760855  0.65193569  0.95723003    -0.24200
H1859       H  0.85832660  0.64541475  0.82389540     0.05000
H1860       H  0.90436724  0.68510034  0.81781106     0.08200
H1861       H  0.86735540  0.69087522  0.83512039     0.08200
H1862       H  0.93587614  0.63033123  0.95564752     0.08200
H1863       H  0.90416723  0.64279859  0.97434156     0.08200
H1864       H  0.95197632  0.67819918  0.96620255     0.05000
C1865       C  0.82236501  0.47008159  0.78799609    -0.20800
C1866       C  0.84587836  0.45490502  0.78603446    -0.07400
C1867       C  0.86535960  0.45461672  0.81291644     0.13500
C1868       C  0.85674267  0.46454520  0.84216235    -0.20900
C1869       C  0.82909450  0.47477522  0.84470753    -0.07400
C1870       C  0.81377045  0.48019854  0.81697113     0.13500
C1871       C  0.78790872  0.49598391  0.81758267    -0.24200
H1872       H  0.80728739  0.47010957  0.76729211     0.14800
H1873       H  0.86993057  0.46209666  0.86323039     0.14800
C1874       C  0.89388563  0.44229027  0.81069812    -0.24200
H1875       H  0.78132789  0.50107822  0.79349341     0.05000
H1876       H  0.80163223  0.52308875  0.83040691     0.08200
H1877       H  0.76086412  0.47630025  0.82908879     0.08200
H1878       H  0.91715614  0.46147202  0.79492396     0.08200
H1879       H  0.88088805  0.41363695  0.80082404     0.08200
H1880       H  0.90587979  0.44255520  0.83405307     0.05000
C1881       C  0.94593833  0.37597234  0.75256101    -0.20800
C1882       C  0.93974538  0.38760530  0.72337434    -0.07400
C1883       C  0.97097784  0.41521699  0.70623622     0.13500
C1884       C  0.00684232  0.43251619  0.71980846    -0.20900
C1885       C  0.01243605  0.42302708  0.74999118    -0.07400
C1886       C  0.98200834  0.39364234  0.76616503     0.13500
C1887       C  0.98744235  0.38208902  0.79821868    -0.24200
H1888       H  0.92216115  0.35479590  0.76568560     0.14800
H1889       H  0.03045832  0.45489252  0.70738694     0.14800
C1890       C  0.96676083  0.42684756  0.67368839    -0.24200
H1891       H  0.96083019  0.35871614  0.80774299     0.05000
H1892       H  0.99775772  0.40607778  0.81482222     0.08200
H1893       H  0.00834456  0.37279673  0.79674539     0.08200
H1894       H  0.95031825  0.44124711  0.67449770     0.08200
H1895       H  0.95249149  0.40186516  0.65815660     0.08200
H1896       H  0.99443634  0.44653772  0.66297788     0.05000
C1897       C  0.73250400  0.33201902  0.98930359    -0.20800
C1898       C  0.75096506  0.31553188  0.97451449    -0.07400
C1899       C  0.78802658  0.33869963  0.96330685     0.13500
C1900       C  0.80262105  0.37753967  0.96124967    -0.20900
C1901       C  0.78158686  0.39338561  0.97209388    -0.07400
C1902       C  0.74837124  0.37093458  0.98937551     0.13500
C1903       C  0.72924185  0.38823629  0.00690578    -0.24200
H1904       H  0.70461142  0.31436354  0.99894029     0.14800
H1905       H  0.82885197  0.39488538  0.94892915     0.14800
C1906       C  0.81098910  0.32211223  0.95174101    -0.24200
H1907       H  0.70280077  0.36683298  0.01830781     0.05000
H1908       H  0.72277181  0.40467562  0.99056457     0.08200
H1909       H  0.74830069  0.40731395  0.02540953     0.08200
H1910       H  0.79561443  0.30102685  0.93322181     0.08200
H1911       H  0.81620830  0.30813035  0.97156896     0.08200
H1912       H  0.83852356  0.34374840  0.94208472     0.05000
C1913       C  0.79202270  0.28403857  0.86035845    -0.20800
C1914       C  0.76858724  0.24524575  0.86237914    -0.07400
C1915       C  0.76082695  0.22327718  0.83488671     0.13500
C1916       C  0.77150905  0.24105859  0.80543322    -0.20900
C1917       C  0.79030894  0.28024054  0.80345815    -0.07400
C1918       C  0.80306175  0.30183784  0.83125740     0.13500
C1919       C  0.82738116  0.34377090  0.83032084    -0.24200
H1920       H  0.79819535  0.30101072  0.88133765     0.14800
H1921       H  0.76292630  0.22443853  0.78403777     0.14800
C1922       C  0.73988541  0.18125012  0.83683802    -0.24200
H1923       H  0.83602063  0.35606895  0.85424519     0.05000
H1924       H  0.81216063  0.35640571  0.81936497     0.08200
H1925       H  0.85317823  0.35124034  0.81659616     0.08200
H1926       H  0.71249658  0.17082731  0.84890744     0.08200
H1927       H  0.75672157  0.17227818  0.85052764     0.08200
H1928       H  0.73468256  0.16807638  0.81315369     0.05000
C1929       C  0.68938495  0.08437425  0.88674043    -0.20800
C1930       C  0.68463163  0.08632488  0.91927552    -0.07400
C1931       C  0.69539652  0.06692781  0.93986111     0.13500
C1932       C  0.71252333  0.04760961  0.92754374    -0.20900
C1933       C  0.72045011  0.04861581  0.89528461    -0.07400
C1934       C  0.70776227  0.06623565  0.87451778     0.13500
C1935       C  0.71463501  0.06687805  0.83962285    -0.24200
H1936       H  0.68132814  0.09956194  0.87105128     0.14800
H1937       H  0.72248526  0.03422982  0.94343189     0.14800
C1938       C  0.69022254  0.06797108  0.97488542    -0.24200
H1939       H  0.70207247  0.08104545  0.82672249     0.05000
H1940       H  0.70193962  0.03781436  0.83053252     0.08200
H1941       H  0.74523221  0.08210835  0.83462122     0.08200
H1942       H  0.66003631  0.05661283  0.98036152     0.08200
H1943       H  0.70661238  0.09716868  0.98371438     0.08200
H1944       H  0.69982104  0.05105370  0.98760501     0.05000
C1945       C  0.63450139  0.19736614  0.69101637    -0.20800
C1946       C  0.61534486  0.21467960  0.67904386    -0.07400
C1947       C  0.63648946  0.25077641  0.66593452     0.13500
C1948       C  0.67580963  0.26997896  0.66828404    -0.20900
C1949       C  0.69453731  0.25452940  0.68408648    -0.07400
C1950       C  0.67386225  0.21713696  0.69419976     0.13500
C1951       C  0.69284256  0.19929789  0.71085308    -0.24200
H1952       H  0.61845453  0.16958191  0.70087404     0.14800
H1953       H  0.69185966  0.29867726  0.66031847     0.14800
C1954       C  0.61789352  0.26975708  0.65037204    -0.24200
H1955       H  0.67246814  0.17010514  0.71782159     0.05000
H1956       H  0.70688618  0.21542698  0.73247337     0.08200
H1957       H  0.71411833  0.19882080  0.69504621     0.08200
H1958       H  0.60176721  0.27612538  0.66779198     0.08200
H1959       H  0.59879152  0.25142093  0.63155003     0.08200
H1960       H  0.63886011  0.29664664  0.63948013     0.05000
C1961       C  0.59474899  0.15938326  0.78381974    -0.20800
C1962       C  0.55565142  0.13590554  0.78370886    -0.07400
C1963       C  0.53719743  0.11526178  0.81085480     0.13500
C1964       C  0.55806371  0.12175003  0.83847463    -0.20900
C1965       C  0.59636898  0.14920530  0.83962110    -0.07400
C1966       C  0.61536443  0.16685762  0.81149784     0.13500
C1967       C  0.65704898  0.19422008  0.81034186    -0.24200
H1968       H  0.60872626  0.17472702  0.76268310     0.14800
H1969       H  0.54357482  0.10759669  0.85986740     0.14800
C1970       C  0.49550546  0.08825748  0.81219892    -0.24200
H1971       H  0.66716465  0.20309747  0.78591045     0.05000
H1972       H  0.67217654  0.18081561  0.81982010     0.08200
H1973       H  0.66428120  0.21983711  0.82404225     0.08200
H1974       H  0.49035263  0.05992772  0.81769318     0.08200
H1975       H  0.48107311  0.08645563  0.78985051     0.08200
H1976       H  0.48272863  0.09682330  0.83111334     0.05000
C1977       C  0.38104018  0.02780543  0.76143945    -0.20800
C1978       C  0.39009166  0.03378440  0.72929322    -0.07400
C1979       C  0.37858214  0.00252544  0.70908770     0.13500
C1980       C  0.36049501  0.96637764  0.72183361    -0.20900
C1981       C  0.35449804  0.96077165  0.75429120    -0.07400
C1982       C  0.36392484  0.99165051  0.77424617     0.13500
C1983       C  0.35706404  0.98647992  0.80915952    -0.24200
H1984       H  0.38980770  0.05168539  0.77692934     0.14800
H1985       H  0.35338387  0.94256095  0.70665848     0.14800
C1986       C  0.38588056  0.00711320  0.67415190    -0.24200
H1987       H  0.36574410  0.01340799  0.82138537     0.05000
H1988       H  0.37325402  0.97437943  0.81928945     0.08200
H1989       H  0.32668432  0.96731301  0.81372538     0.08200
H1990       H  0.41647988  0.02185967  0.66927769     0.08200
H1991       H  0.37366501  0.02326262  0.66419805     0.08200
H1992       H  0.37307072  0.97968973  0.66180402     0.05000
C1993       C  0.48801205  0.32983472  0.69718871    -0.20800
C1994       C  0.52122827  0.35035938  0.67973009    -0.07400
C1995       C  0.53288707  0.33102177  0.65947788     0.13500
C1996       C  0.51528756  0.29201670  0.66150724    -0.20900
C1997       C  0.48625388  0.27215663  0.68321660    -0.07400
C1998       C  0.47071533  0.29079435  0.69968320     0.13500
C1999       C  0.43845436  0.27010226  0.72225713    -0.24200
H2000       H  0.47807277  0.34454466  0.71146024     0.14800
H2001       H  0.52665671  0.27750087  0.64826552     0.14800
C2002       C  0.56422492  0.35072203  0.63612650    -0.24200
H2003       H  0.42958521  0.28880929  0.73320374     0.05000
H2004       H  0.44675932  0.25764259  0.74131929     0.08200
H2005       H  0.41400480  0.24751418  0.70950741     0.08200
H2006       H  0.58601684  0.34326905  0.64049631     0.08200
H2007       H  0.57702872  0.38152856  0.63715824     0.08200
H2008       H  0.55314251  0.34128456  0.61201488     0.05000
C2009       C  0.74142996  0.54692155  0.83643031    -0.20800
C2010       C  0.71985636  0.53147252  0.86357398    -0.07400
C2011       C  0.68034922  0.51307084  0.86178235     0.13500
C2012       C  0.66312446  0.50694586  0.83240498    -0.20900
C2013       C  0.68455318  0.51865531  0.80471817    -0.07400
C2014       C  0.72428733  0.54048957  0.80680286     0.13500
C2015       C  0.74893566  0.55449256  0.77796296    -0.24200
H2016       H  0.77176783  0.56106913  0.83807883     0.14800
H2017       H  0.63272133  0.49139228  0.83093567     0.14800
C2018       C  0.65636235  0.49877243  0.89088033    -0.24200
H2019       H  0.77923438  0.56934320  0.78408423     0.05000
H2020       H  0.74347691  0.57444789  0.76516470     0.08200
H2021       H  0.74325672  0.53063225  0.76230578     0.08200
H2022       H  0.66393882  0.52248280  0.90726532     0.08200
H2023       H  0.66063078  0.47741064  0.90254267     0.08200
H2024       H  0.62609361  0.48575096  0.88538245     0.05000
C2025       C  0.74626007  0.48068741  0.68904342    -0.20800
C2026       C  0.70775898  0.45700481  0.68347222    -0.07400
C2027       C  0.69503914  0.42063143  0.67148212     0.13500
C2028       C  0.71969665  0.40680339  0.67008830    -0.20900
C2029       C  0.75700450  0.42878773  0.67967449    -0.07400
C2030       C  0.77124685  0.46699061  0.68692106     0.13500
C2031       C  0.81215511  0.49256789  0.69438571    -0.24200
H2032       H  0.75625918  0.50889273  0.69750589     0.14800
H2033       H  0.70911752  0.37777284  0.66377891     0.14800
C2034       C  0.65518627  0.39583489  0.66094845    -0.24200
H2035       H  0.81831987  0.52119399  0.70056460     0.05000
H2036       H  0.82941188  0.49452252  0.67355375     0.08200
H2037       H  0.82056807  0.48158589  0.71442710     0.08200
H2038       H  0.64815185  0.41058324  0.64300609     0.08200
H2039       H  0.63558900  0.38813498  0.68114093     0.08200
H2040       H  0.65108937  0.36951568  0.65022501     0.05000
C2041       C  0.57032137  0.60296689  0.77352803    -0.20800
C2042       C  0.55444330  0.61707953  0.75260952    -0.07400
C2043       C  0.55838343  0.61384499  0.71987619     0.13500
C2044       C  0.57636387  0.59481773  0.70889162    -0.20900
C2045       C  0.59079615  0.57924163  0.72980451    -0.07400
C2046       C  0.58869890  0.58430534  0.76253516     0.13500
C2047       C  0.60329634  0.56769205  0.78594816    -0.24200
H2048       H  0.56683484  0.60512138  0.79861091     0.14800
H2049       H  0.57759793  0.59049247  0.68383129     0.14800
C2050       C  0.54121266  0.62794283  0.69651531    -0.24200
H2051       H  0.59780775  0.57279276  0.81057466     0.05000
H2052       H  0.63409486  0.58031498  0.78296284     0.08200
H2053       H  0.58942498  0.53705711  0.78219265     0.08200
H2054       H  0.55422142  0.65869475  0.69896639     0.08200
H2055       H  0.51055396  0.61448692  0.70081785     0.08200
H2056       H  0.54551509  0.62168812  0.67189727     0.05000
C2057       C  0.42106966  0.20972352  0.80765575    -0.20800
C2058       C  0.44420154  0.19391540  0.80634780    -0.07400
C2059       C  0.46049478  0.19058359  0.83435535     0.13500
C2060       C  0.45676138  0.20682398  0.86209828    -0.20900
C2061       C  0.43739558  0.22646532  0.86252746    -0.07400
C2062       C  0.41781914  0.22647880  0.83551363     0.13500
C2063       C  0.39585442  0.24639042  0.83551836    -0.24200
H2064       H  0.40810712  0.21176708  0.78627643     0.14800
H2065       H  0.47150904  0.20669020  0.88302891     0.14800
C2066       C  0.48237260  0.17050368  0.83503965    -0.24200
H2067       H  0.38267146  0.24418401  0.81232274     0.05000
H2068       H  0.41469456  0.27648071  0.84102724     0.08200
H2069       H  0.37323809  0.23380803  0.85350181     0.08200
H2070       H  0.50865264  0.18574416  0.82115079     0.08200
H2071       H  0.46474933  0.14195403  0.82523186     0.08200
H2072       H  0.49037818  0.16792930  0.85935836     0.05000
C2073       C  0.47491925  0.38014953  0.82402475    -0.20800
C2074       C  0.49553279  0.40135221  0.85001078    -0.07400
C2075       C  0.52295660  0.43935063  0.84600666     0.13500
C2076       C  0.53229266  0.45395643  0.81552350    -0.20900
C2077       C  0.51486306  0.43124932  0.78922739    -0.07400
C2078       C  0.48398696  0.39492119  0.79367288     0.13500
C2079       C  0.46193328  0.37030108  0.76661816    -0.24200
H2080       H  0.45317192  0.35119240  0.82719822     0.14800
H2081       H  0.55629377  0.48166334  0.81212045     0.14800
C2082       C  0.54524953  0.46319335  0.87336539    -0.24200
H2083       H  0.43168515  0.36064252  0.77001410     0.05000
H2084       H  0.46562694  0.34561514  0.76571506     0.08200
H2085       H  0.47080703  0.38538496  0.74393684     0.08200
H2086       H  0.55987683  0.45009461  0.88458282     0.08200
H2087       H  0.52617097  0.46542126  0.89063425     0.08200
H2088       H  0.56667775  0.49188475  0.86600714     0.05000
C2089       C  0.50935851  0.21294793  0.94976006    -0.20800
C2090       C  0.52507723  0.24872567  0.96353631    -0.07400
C2091       C  0.56083821  0.26453316  0.97769385     0.13500
C2092       C  0.58140732  0.24614286  0.97484181    -0.20900
C2093       C  0.56757646  0.21269541  0.95765188    -0.07400
C2094       C  0.53043639  0.19501005  0.94613004     0.13500
C2095       C  0.51416662  0.15897964  0.92771012    -0.24200
H2096       H  0.48175516  0.20049295  0.93922458     0.14800
H2097       H  0.60973592  0.25941219  0.98407748     0.14800
C2098       C  0.57809486  0.30137684  0.99487715    -0.24200
H2099       H  0.48512406  0.14949559  0.91973385     0.05000
H2100       H  0.51325365  0.13674218  0.94266249     0.08200
H2101       H  0.53170436  0.16280516  0.90657314     0.08200
H2102       H  0.55837520  0.30059924  0.01316238     0.08200
H2103       H  0.58479668  0.32410586  0.97801054     0.08200
H2104       H  0.60469765  0.30795069  0.00665057     0.05000
C2105       C  0.59993787  0.40584456  0.98775860    -0.20800
C2106       C  0.58244682  0.42354042  0.97400558    -0.07400
C2107       C  0.60402822  0.46200601  0.96745688     0.13500
C2108       C  0.64346826  0.47999727  0.96946810    -0.20900
C2109       C  0.66137336  0.45982067  0.97709136    -0.07400
C2110       C  0.63912108  0.42345018  0.98940547     0.13500
C2111       C  0.65603479  0.40180105  0.00218046    -0.24200
H2112       H  0.58294735  0.37673839  0.99430289     0.14800
H2113       H  0.66023257  0.50881575  0.96211624     0.14800
C2114       C  0.58561151  0.48336914  0.95697943    -0.24200
H2115       H  0.63615916  0.37932793  0.01816882     0.05000
H2116       H  0.68146877  0.42059073  0.01607818     0.08200
H2117       H  0.66266266  0.38854834  0.98234890     0.08200
H2118       H  0.56649548  0.48270174  0.97579017     0.08200
H2119       H  0.56903021  0.47049635  0.93551669     0.08200
H2120       H  0.60657717  0.51301584  0.95187103     0.05000
C2121       C  0.27868678  0.26734454  0.92122988    -0.20800
C2122       C  0.27402074  0.25405339  0.89007472    -0.07400
C2123       C  0.30622916  0.26301105  0.87176750     0.13500
C2124       C  0.34198727  0.28308832  0.88556681    -0.20900
C2125       C  0.34627217  0.29332572  0.91743479    -0.07400
C2126       C  0.31445830  0.28641527  0.93526079     0.13500
C2127       C  0.31825534  0.29840533  0.96919980    -0.24200
H2128       H  0.25404912  0.26053749  0.93529851     0.14800
H2129       H  0.36661445  0.28892585  0.87191551     0.14800
C2130       C  0.30299037  0.25104016  0.83781838    -0.24200
H2131       H  0.29069867  0.29119666  0.97970742     0.05000
H2132       H  0.33715899  0.32914408  0.97098176     0.08200
H2133       H  0.33020864  0.28434883  0.98305075     0.08200
H2134       H  0.28729015  0.26163673  0.82450117     0.08200
H2135       H  0.28814579  0.22012817  0.83596536     0.08200
H2136       H  0.33099686  0.26217635  0.82660321     0.05000
C2137       C  0.82318986  0.54927245  0.09566721    -0.20800
C2138       C  0.83550165  0.52483619  0.10550215    -0.07400
C2139       C  0.84517165  0.50639942  0.08227197     0.13500
C2140       C  0.84165304  0.51247518  0.05043151    -0.20900
C2141       C  0.82819784  0.53589709  0.04075213    -0.07400
C2142       C  0.81914497  0.55483614  0.06377617     0.13500
C2143       C  0.80568974  0.58128912  0.05514962    -0.24200
H2144       H  0.81566495  0.56361145  0.11307870     0.14800
H2145       H  0.84834449  0.49763023  0.03284891     0.14800
C2146       C  0.85912056  0.48017051  0.09032949    -0.24200
H2147       H  0.80252414  0.59555991  0.07617432     0.05000
H2148       H  0.77781332  0.56575240  0.04366754     0.08200
H2149       H  0.82622967  0.60312934  0.03905967     0.08200
H2150       H  0.83678605  0.45526896  0.10267792     0.08200
H2151       H  0.88451737  0.49482677  0.10530905     0.08200
H2152       H  0.86689442  0.46989809  0.06900415     0.05000
C2153       C  0.96624978  0.59338766  0.20875515    -0.20800
C2154       C  0.93581787  0.58734020  0.22792644    -0.07400
C2155       C  0.94305479  0.60133876  0.25921599     0.13500
C2156       C  0.97999768  0.61822873  0.27113354    -0.20900
C2157       C  0.00979703  0.62194719  0.25235250    -0.07400
C2158       C  0.00298782  0.61048944  0.22054926     0.13500
C2159       C  0.03435097  0.61458868  0.19944297    -0.24200
H2160       H  0.96095237  0.58295288  0.18476997     0.14800
H2161       H  0.98531265  0.62685199  0.29558191     0.14800
C2162       C  0.91172936  0.59654592  0.28068013    -0.24200
H2163       H  0.02437096  0.60424891  0.17522734     0.05000
H2164       H  0.04658454  0.59833039  0.20906912     0.08200
H2165       H  0.05658093  0.64449127  0.19800534     0.08200
H2166       H  0.89042241  0.56647941  0.28306509     0.08200
H2167       H  0.89822344  0.61156062  0.27089314     0.08200
H2168       H  0.92216528  0.60799267  0.30456464     0.05000
C2169       C  0.44219306  0.11566929  0.55467618    -0.20800
C2170       C  0.44067780  0.14710492  0.54429068    -0.07400
C2171       C  0.44220090  0.17311996  0.56696593     0.13500
C2172       C  0.44531664  0.16701087  0.59892583    -0.20900
C2173       C  0.44797637  0.13631080  0.60892678    -0.07400
C2174       C  0.44610914  0.11013080  0.58662802     0.13500
C2175       C  0.44750409  0.07604974  0.59648662    -0.24200
H2176       H  0.44080109  0.09543183  0.53763490     0.14800
H2177       H  0.44702218  0.18713440  0.61628184     0.14800
C2178       C  0.44237125  0.20827762  0.55792909    -0.24200
H2179       H  0.44418105  0.05769615  0.57610852     0.05000
H2180       H  0.42448419  0.05955522  0.61346072     0.08200
H2181       H  0.47490368  0.08453346  0.60764414     0.08200
H2182       H  0.41545037  0.20106305  0.54647181     0.08200
H2183       H  0.46620210  0.22511177  0.54173127     0.08200
H2184       H  0.44560516  0.22604522  0.57873308     0.05000
C2185       C  0.30106419  0.06069155  0.37452771    -0.20800
C2186       C  0.26935481  0.04319349  0.39412932    -0.07400
C2187       C  0.27429768  0.04280399  0.42698631     0.13500
C2188       C  0.31061624  0.06370257  0.43971912    -0.20900
C2189       C  0.34204285  0.08299566  0.42010215    -0.07400
C2190       C  0.33742910  0.07976763  0.38715011     0.13500
C2191       C  0.37091011  0.09782680  0.36540069    -0.24200
H2192       H  0.29726344  0.06068910  0.34932913     0.14800
H2193       H  0.31439113  0.06601452  0.46499571     0.14800
C2194       C  0.24115946  0.02197747  0.44866117    -0.24200
H2195       H  0.36241985  0.09379576  0.34029741     0.05000
H2196       H  0.38884684  0.08536615  0.36919266     0.08200
H2197       H  0.38777525  0.12822639  0.37028052     0.08200
H2198       H  0.22727667  0.99156864  0.44356067     0.08200
H2199       H  0.22059609  0.03119100  0.44490918     0.08200
H2200       H  0.24962202  0.02656940  0.47377715     0.05000
C2201       C  0.44967945  0.36360883  0.05539069    -0.20800
C2202       C  0.44213280  0.32819610  0.04447169    -0.07400
C2203       C  0.43736667  0.30102034  0.06691253     0.13500
C2204       C  0.44102908  0.31030758  0.09896686    -0.20900
C2205       C  0.44963101  0.34593924  0.10961267    -0.07400
C2206       C  0.45361358  0.37285508  0.08752454     0.13500
C2207       C  0.46113925  0.41098224  0.09756622    -0.24200
H2208       H  0.45329928  0.38473301  0.03866120     0.14800
H2209       H  0.43810140  0.28965457  0.11595977     0.14800
C2210       C  0.42846996  0.26214413  0.05782098    -0.24200
H2211       H  0.46107812  0.42759116  0.07724996     0.05000
H2212       H  0.48910425  0.42690712  0.10885170     0.08200
H2213       H  0.43907382  0.40805799  0.11433712     0.08200
H2214       H  0.45213207  0.26346592  0.04417644     0.08200
H2215       H  0.40226257  0.24811232  0.04376900     0.08200
H2216       H  0.42411299  0.24450691  0.07872406     0.05000
C2217       C  0.63484651  0.47261589  0.18180468    -0.20800
C2218       C  0.61507074  0.43399848  0.17504429    -0.07400
C2219       C  0.63582234  0.41714953  0.16517602     0.13500
C2220       C  0.67483062  0.43652618  0.16870561    -0.20900
C2221       C  0.69410567  0.47319808  0.18043531    -0.07400
C2222       C  0.67438492  0.49252377  0.18447578     0.13500
C2223       C  0.69461396  0.53318094  0.19348341    -0.24200
H2224       H  0.61932805  0.48641826  0.18797082     0.14800
H2225       H  0.69008755  0.42198746  0.16418653     0.14800
C2226       C  0.61746584  0.37831512  0.15190683    -0.24200
H2227       H  0.67494068  0.54387394  0.19634115     0.05000
H2228       H  0.71531377  0.54971509  0.17489255     0.08200
H2229       H  0.70957799  0.53736726  0.21594689     0.08200
H2230       H  0.58738815  0.36749258  0.14694519     0.08200
H2231       H  0.62062627  0.35971354  0.16865684     0.08200
H2232       H  0.63101321  0.37841429  0.12921508     0.05000
C2233       C  0.41513194  0.24618668  0.30853606    -0.20800
C2234       C  0.44281605  0.28414053  0.30604344    -0.07400
C2235       C  0.45919212  0.30506919  0.33375638     0.13500
C2236       C  0.45201607  0.28632231  0.36243435    -0.20900
C2237       C  0.42836301  0.24745266  0.36420027    -0.07400
C2238       C  0.40748684  0.22766919  0.33751372     0.13500
C2239       C  0.37836721  0.18682998  0.33884201    -0.24200
H2240       H  0.40109368  0.23034463  0.28755371     0.14800
H2241       H  0.46813670  0.30160350  0.38286686     0.14800
C2242       C  0.48471010  0.34695849  0.33328741    -0.24200
H2243       H  0.35112426  0.18263217  0.33035037     0.05000
H2244       H  0.37392092  0.17595362  0.36316536     0.08200
H2245       H  0.38696450  0.17059176  0.32359437     0.08200
H2246       H  0.47011243  0.35997604  0.32180459     0.08200
H2247       H  0.51112908  0.35474313  0.32047342     0.08200
H2248       H  0.49251317  0.35880126  0.35742500     0.05000
C2249       C  0.37439006  0.41309289  0.27897015    -0.20800
C2250       C  0.35096843  0.41900249  0.25904250    -0.07400
C2251       C  0.34500520  0.40484931  0.22793778     0.13500
C2252       C  0.36472369  0.38742816  0.21685003    -0.20900
C2253       C  0.38989107  0.38364048  0.23634437    -0.07400
C2254       C  0.39376370  0.39544974  0.26803305     0.13500
C2255       C  0.42000401  0.39125024  0.28982367    -0.24200
H2256       H  0.37920918  0.42428086  0.30271779     0.14800
H2257       H  0.36194228  0.37845085  0.19250940     0.14800
C2258       C  0.31973959  0.41026675  0.20595059    -0.24200
H2259       H  0.42005982  0.40220307  0.31376681     0.05000
H2260       H  0.44906725  0.40685538  0.28038974     0.08200
H2261       H  0.41123426  0.36125044  0.29185863     0.08200
H2262       H  0.32988725  0.44050291  0.20337570     0.08200
H2263       H  0.29072175  0.39612860  0.21556899     0.08200
H2264       H  0.31889542  0.39844027  0.18223115     0.05000
C2265       C  0.68572247  0.63409193  0.39133295    -0.20800
C2266       C  0.68763432  0.62929699  0.42381871    -0.07400
C2267       C  0.70431253  0.66121744  0.44366925     0.13500
C2268       C  0.72113176  0.69702760  0.43032373    -0.20900
C2269       C  0.72259088  0.70171901  0.39763615    -0.07400
C2270       C  0.70356755  0.67000421  0.37796182     0.13500
C2271       C  0.70309136  0.67414306  0.34284550    -0.24200
H2272       H  0.67272564  0.60968917  0.37610881     0.14800
H2273       H  0.73572746  0.72149896  0.44533638     0.14800
C2274       C  0.70513419  0.65772067  0.47888022    -0.24200
H2275       H  0.68648903  0.64663055  0.33089406     0.05000
H2276       H  0.73214113  0.68792026  0.33333027     0.08200
H2277       H  0.69033224  0.69138329  0.33721185     0.08200
H2278       H  0.72242956  0.64528025  0.48530334     0.08200
H2279       H  0.67610343  0.63984630  0.48791488     0.08200
H2280       H  0.71743003  0.68536456  0.49080252     0.05000
C2281       C  0.61541718  0.49560922  0.55240445    -0.20800
C2282       C  0.65047119  0.52624046  0.54429820    -0.07400
C2283       C  0.67384212  0.55074049  0.56789330     0.13500
C2284       C  0.66143301  0.54391243  0.59920056    -0.20900
C2285       C  0.62631113  0.51286569  0.60770902    -0.07400
C2286       C  0.60305164  0.48825125  0.58366308     0.13500
C2287       C  0.56549420  0.45388786  0.59020155    -0.24200
H2288       H  0.59773049  0.47678428  0.53398124     0.14800
H2289       H  0.67969670  0.56307539  0.61712541     0.14800
C2290       C  0.71125822  0.58458238  0.56012082    -0.24200
H2291       H  0.55169102  0.43825561  0.56832042     0.05000
H2292       H  0.54630317  0.46200544  0.60146681     0.08200
H2293       H  0.56920560  0.43454563  0.60561791     0.08200
H2294       H  0.70725426  0.60255579  0.54326245     0.08200
H2295       H  0.73023676  0.57575824  0.54957413     0.08200
H2296       H  0.72524570  0.60159697  0.58139019     0.05000
C2297       C  0.75107936  0.56022630  0.33859468    -0.20800
C2298       C  0.76162861  0.54674478  0.36433932    -0.07400
C2299       C  0.78726804  0.53411350  0.35983784     0.13500
C2300       C  0.79886885  0.53168249  0.32947723    -0.20900
C2301       C  0.78446515  0.54039568  0.30336737    -0.07400
C2302       C  0.76197639  0.55683846  0.30788745     0.13500
C2303       C  0.74622151  0.56700814  0.28047966    -0.24200
H2304       H  0.73099038  0.56946281  0.34211750     0.14800
H2305       H  0.81671167  0.51976664  0.32587484     0.14800
C2306       C  0.80029944  0.52055164  0.38680674    -0.24200
H2307       H  0.72858947  0.57883303  0.28822813     0.05000
H2308       H  0.72843201  0.54150434  0.26638321     0.08200
H2309       H  0.76943521  0.58814271  0.26571553     0.08200
H2310       H  0.77595038  0.49577826  0.39747848     0.08200
H2311       H  0.81413794  0.54334082  0.40446819     0.08200
H2312       H  0.82079862  0.51218730  0.37915200     0.05000
C2313       C  0.61335972  0.47985864  0.32072095    -0.20800
C2314       C  0.59169427  0.47212555  0.34815822    -0.07400
C2315       C  0.55219942  0.45591087  0.34566186     0.13500
C2316       C  0.53530976  0.44508850  0.31590842    -0.20900
C2317       C  0.55683899  0.44954616  0.28897787    -0.07400
C2318       C  0.59640075  0.46867801  0.29118544     0.13500
C2319       C  0.62070181  0.47596805  0.26244186    -0.24200
H2320       H  0.64364941  0.49318714  0.32254403     0.14800
H2321       H  0.50497484  0.43000425  0.31406136     0.14800
C2322       C  0.52737710  0.44705613  0.37426873    -0.24200
H2323       H  0.65108336  0.49189074  0.26827246     0.05000
H2324       H  0.61504768  0.49262001  0.24541577     0.08200
H2325       H  0.61468806  0.44925297  0.25124607     0.08200
H2326       H  0.53410919  0.47326732  0.38683648     0.08200
H2327       H  0.53156787  0.42844160  0.39023032     0.08200
H2328       H  0.49716278  0.43262155  0.36789114     0.05000
C2329       C  0.52520517  0.37317873  0.46240406    -0.20800
C2330       C  0.56327038  0.38862692  0.47005130    -0.07400
C2331       C  0.57511503  0.36526177  0.48350278     0.13500
C2332       C  0.55083702  0.32647651  0.48377167    -0.20900
C2333       C  0.51432527  0.31055977  0.47218108    -0.07400
C2334       C  0.50032655  0.33420098  0.46389875     0.13500
C2335       C  0.45979663  0.31811709  0.45495780    -0.24200
H2336       H  0.51563979  0.39106219  0.45289356     0.14800
H2337       H  0.56126943  0.30834336  0.49085139     0.14800
C2338       C  0.61395721  0.38103232  0.49642894    -0.24200
H2339       H  0.45366609  0.34027278  0.44817428     0.05000
H2340       H  0.44164048  0.30278634  0.47529824     0.08200
H2341       H  0.45250931  0.29840807  0.43495108     0.08200
H2342       H  0.61949821  0.40313620  0.51406036     0.08200
H2343       H  0.63485129  0.39286619  0.47715080     0.08200
H2344       H  0.61730742  0.35912959  0.50823783     0.05000
C2345       C  0.85188193  0.36191454  0.55008732    -0.20800
C2346       C  0.82807490  0.32497376  0.53942820    -0.07400
C2347       C  0.80908332  0.29646584  0.56205959     0.13500
C2348       C  0.81323084  0.30600665  0.59409767    -0.20900
C2349       C  0.83582307  0.34314336  0.60464573    -0.07400
C2350       C  0.85605583  0.37138709  0.58218832     0.13500
C2351       C  0.88257847  0.41146073  0.59158154    -0.24200
H2352       H  0.86687956  0.38399835  0.53313442     0.14800
H2353       H  0.79783988  0.28406691  0.61109025     0.14800
C2354       C  0.78456869  0.25581512  0.55314961    -0.24200
H2355       H  0.90387169  0.41288257  0.60822595     0.05000
H2356       H  0.86673892  0.42364903  0.60265668     0.08200
H2357       H  0.89779048  0.42906422  0.57098905     0.08200
H2358       H  0.80082974  0.24661591  0.53849995     0.08200
H2359       H  0.75947533  0.25157570  0.54017303     0.08200
H2360       H  0.77424013  0.23749524  0.57412882     0.05000
C2361       C  0.86058053  0.43118216  0.34204311    -0.20800
C2362       C  0.84251389  0.39198884  0.34225069    -0.07400
C2363       C  0.83119316  0.37213742  0.31345038     0.13500
C2364       C  0.83340571  0.39135681  0.28593762    -0.20900
C2365       C  0.84752563  0.42998045  0.28625299    -0.07400
C2366       C  0.86305270  0.45047155  0.31429161     0.13500
C2367       C  0.87985782  0.49219339  0.31612709    -0.24200
H2368       H  0.86967566  0.44656442  0.36405295     0.14800
H2369       H  0.82135539  0.37550478  0.26459257     0.14800
C2370       C  0.81521772  0.33047855  0.31116411    -0.24200
H2371       H  0.90925348  0.50534337  0.32457859     0.05000
H2372       H  0.86344572  0.49903637  0.33289776     0.08200
H2373       H  0.88033723  0.50453044  0.29300510     0.08200
H2374       H  0.78549290  0.31660235  0.30343423     0.08200
H2375       H  0.81658454  0.31807365  0.33373986     0.08200
H2376       H  0.83159674  0.32447937  0.29365189     0.05000
C2377       C  0.64362155  0.20391795  0.45606891    -0.20800
C2378       C  0.66454932  0.24178132  0.46521999    -0.07400
C2379       C  0.64520256  0.25967398  0.47642898     0.13500
C2380       C  0.60592360  0.24077408  0.47469684    -0.20900
C2381       C  0.58537729  0.20483192  0.46143210    -0.07400
C2382       C  0.60417695  0.18532517  0.45364293     0.13500
C2383       C  0.58324250  0.14627739  0.44027728    -0.24200
H2384       H  0.65830209  0.18997370  0.44776017     0.14800
H2385       H  0.59130348  0.25539798  0.48132428     0.14800
C2386       C  0.66562715  0.29914511  0.48918152    -0.24200
H2387       H  0.60237618  0.13543308  0.43490164     0.05000
H2388       H  0.56897482  0.14596409  0.41814250     0.08200
H2389       H  0.56200339  0.12723376  0.45755059     0.08200
H2390       H  0.68132870  0.31938581  0.47023311     0.08200
H2391       H  0.68530608  0.30165915  0.50797911     0.08200
H2392       H  0.64585280  0.30715211  0.49946091     0.05000
C2393       C  0.75449119  0.40826687  0.48449727    -0.20800
C2394       C  0.78616979  0.42131745  0.46506625    -0.07400
C2395       C  0.80376599  0.45834991  0.45401291     0.13500
C2396       C  0.78651025  0.47976685  0.45957753    -0.20900
C2397       C  0.75091643  0.46387605  0.47384468    -0.07400
C2398       C  0.73699344  0.42937652  0.48938539     0.13500
C2399       C  0.70387063  0.41411190  0.51116834    -0.24200
H2400       H  0.74176476  0.38031670  0.49414348     0.14800
H2401       H  0.79893116  0.50755244  0.44993838     0.14800
C2402       C  0.83883031  0.47396257  0.43423547    -0.24200
H2403       H  0.71273420  0.41113908  0.53503604     0.05000
H2404       H  0.68229338  0.38605026  0.50271047     0.08200
H2405       H  0.69188462  0.43268795  0.51313081     0.08200
H2406       H  0.83304617  0.45727006  0.41227201     0.08200
H2407       H  0.86127500  0.47290712  0.44757883     0.08200
H2408       H  0.84929835  0.50349465  0.42774886     0.05000
C2409       C  0.90649687  0.27344267  0.43919743    -0.20800
C2410       C  0.89189431  0.28798199  0.41742128    -0.07400
C2411       C  0.89849384  0.28599536  0.38496929     0.13500
C2412       C  0.91621907  0.26623526  0.37495745    -0.20900
C2413       C  0.92900185  0.24996086  0.39672312    -0.07400
C2414       C  0.92572387  0.25521145  0.42919105     0.13500
C2415       C  0.94082781  0.23980402  0.45319440    -0.24200
H2416       H  0.90170234  0.27524635  0.46408238     0.14800
H2417       H  0.91883744  0.26223231  0.35004018     0.14800
C2418       C  0.88512529  0.30301464  0.36085877    -0.24200
H2419       H  0.93479091  0.24500957  0.47761432     0.05000
H2420       H  0.97172681  0.25312513  0.45036379     0.08200
H2421       H  0.92791811  0.20927707  0.44965015     0.08200
H2422       H  0.89949596  0.33371996  0.36453789     0.08200
H2423       H  0.85441699  0.29123159  0.36315166     0.08200
H2424       H  0.89120476  0.29766499  0.33649873     0.05000
C2425       C  0.60439804  0.14660316  0.08484905    -0.20800
C2426       C  0.62719759  0.14022516  0.10511272    -0.07400
C2427       C  0.65829531  0.13864477  0.09234796     0.13500
C2428       C  0.66589561  0.14405916  0.05994652    -0.20900
C2429       C  0.64343257  0.15103091  0.03987749    -0.07400
C2430       C  0.61222893  0.15236834  0.05253180     0.13500
C2431       C  0.58810486  0.16176310  0.03251871    -0.24200
H2432       H  0.58106059  0.14849847  0.09455841     0.14800
H2433       H  0.68956711  0.14281390  0.05015894     0.14800
C2434       C  0.68334874  0.13061720  0.11241651    -0.24200
H2435       H  0.56692749  0.16442331  0.04679989     0.05000
H2436       H  0.57257868  0.13938097  0.01484660     0.08200
H2437       H  0.60594931  0.18880763  0.02044177     0.08200
H2438       H  0.66610640  0.10438521  0.12574386     0.08200
H2439       H  0.69972569  0.15414145  0.12893162     0.08200
H2440       H  0.70390399  0.12710225  0.09798155     0.05000
C2441       C  0.53696196  0.23154040  0.16048158    -0.20800
C2442       C  0.52045360  0.19882335  0.17825975    -0.07400
C2443       C  0.48472469  0.18659588  0.19202052     0.13500
C2444       C  0.47044818  0.21107640  0.19318157    -0.20900
C2445       C  0.49047399  0.24668465  0.17975606    -0.07400
C2446       C  0.52159791  0.25495223  0.16026527     0.13500
C2447       C  0.53989906  0.28884678  0.13978913    -0.24200
H2448       H  0.56339164  0.24025389  0.14851226     0.14800
H2449       H  0.44547181  0.20360691  0.20700531     0.14800
C2450       C  0.46163059  0.14860413  0.20649276    -0.24200
H2451       H  0.53731521  0.27995628  0.11478634     0.05000
H2452       H  0.57004490  0.30518392  0.14571570     0.08200
H2453       H  0.52696302  0.30654504  0.14242808     0.08200
H2454       H  0.47658249  0.13270276  0.20688625     0.08200
H2455       H  0.43551312  0.13224998  0.19264191     0.08200
H2456       H  0.45336297  0.15139391  0.23076519     0.05000
C2457       C  0.72343591  0.20329585  0.30472134    -0.20800
C2458       C  0.68557627  0.19379413  0.30368427    -0.07400
C2459       C  0.66646203  0.19127819  0.33213691     0.13500
C2460       C  0.68670568  0.20245192  0.36020878    -0.20900
C2461       C  0.72566789  0.21731330  0.36048470    -0.07400
C2462       C  0.74384102  0.21524831  0.33294128     0.13500
C2463       C  0.78481630  0.22715333  0.33226640    -0.24200
H2464       H  0.73783445  0.20384904  0.28312543     0.14800
H2465       H  0.67275787  0.20345901  0.38161932     0.14800
C2466       C  0.62502622  0.17796225  0.33316316    -0.24200
H2467       H  0.78807221  0.20369363  0.32338962     0.05000
H2468       H  0.79764412  0.23480268  0.35590992     0.08200
H2469       H  0.80023748  0.25139166  0.31637034     0.08200
H2470       H  0.60918522  0.15021365  0.32162178     0.08200
H2471       H  0.61920140  0.19809410  0.32115779     0.08200
H2472       H  0.61446262  0.17510240  0.35768525     0.05000
C2473       C  0.49988292  0.10659347  0.34240533    -0.20800
C2474       C  0.48539049  0.13077470  0.34458599    -0.07400
C2475       C  0.47843210  0.14463408  0.31677692     0.13500
C2476       C  0.49183486  0.13914180  0.28829452    -0.20900
C2477       C  0.51061120  0.11909678  0.28649219    -0.07400
C2478       C  0.51269847  0.10061527  0.31338170     0.13500
C2479       C  0.53049790  0.07669477  0.31160011    -0.24200
H2480       H  0.50431300  0.09514394  0.36370633     0.14800
H2481       H  0.49156538  0.15450445  0.26788099     0.14800
C2482       C  0.45882916  0.16699721  0.31651635    -0.24200
H2483       H  0.53054363  0.06476166  0.33486545     0.05000
H2484       H  0.55991890  0.09336282  0.30324065     0.08200
H2485       H  0.51457437  0.05324669  0.29485910     0.08200
H2486       H  0.47870869  0.19600596  0.30878584     0.08200
H2487       H  0.44711425  0.16800233  0.33976432     0.08200
H2488       H  0.43497065  0.15393546  0.29978090     0.05000
C2489       C  0.74278632  0.29847122  0.18836826    -0.20800
C2490       C  0.70400670  0.28340420  0.18415064    -0.07400
C2491       C  0.69113610  0.30679132  0.17224578     0.13500
C2492       C  0.71626709  0.34533404  0.17001674    -0.20900
C2493       C  0.75392416  0.36115883  0.17902386    -0.07400
C2494       C  0.76805244  0.33716081  0.18560470     0.13500
C2495       C  0.80917887  0.35226106  0.19158625    -0.24200
H2496       H  0.75302738  0.28047288  0.19621341     0.14800
H2497       H  0.70572834  0.36361888  0.16370721     0.14800
C2498       C  0.65083428  0.29176109  0.16259627    -0.24200
H2499       H  0.81514517  0.32966376  0.19712571     0.05000
H2500       H  0.81881213  0.37212931  0.21160966     0.08200
H2501       H  0.82557893  0.36696419  0.17030332     0.08200
H2502       H  0.63199056  0.28259667  0.18339285     0.08200
H2503       H  0.64202065  0.26798580  0.14597449     0.08200
H2504       H  0.64715294  0.31335695  0.15057765     0.05000
C2505       C  0.56850506  0.97539439  0.22376035    -0.20800
C2506       C  0.55785413  0.96967985  0.25565569    -0.07400
C2507       C  0.56811835  0.00117521  0.27528049     0.13500
C2508       C  0.58569853  0.03702747  0.26198957    -0.20900
C2509       C  0.59276186  0.04217400  0.22959716    -0.07400
C2510       C  0.58539924  0.01131002  0.21043217     0.13500
C2511       C  0.59388284  0.01619851  0.17574017    -0.24200
H2512       H  0.56098483  0.95140767  0.20870326     0.14800
H2513       H  0.59169452  0.06094446  0.27661719     0.14800
C2514       C  0.56011958  0.99719958  0.31013891    -0.24200
H2515       H  0.58653866  0.98930411  0.16405133     0.05000
H2516       H  0.62431834  0.03600590  0.17206133     0.08200
H2517       H  0.57756333  0.02746295  0.16439804     0.08200
H2518       H  0.57252230  0.98162902  0.32090605     0.08200
H2519       H  0.52943715  0.98220694  0.31461999     0.08200
H2520       H  0.57235603  0.02484943  0.32204570     0.05000
loop_ 
_geom_bond_atom_site_label_1 
_geom_bond_atom_site_label_2 
_geom_bond_distance 
_geom_bond_site_symmetry_2 
_ccdc_geom_bond_type 
Fe1          O17   2.079       .  S
Fe1           O7   2.092       .  S
Fe1          O14   2.097       .  S
Fe1           O6   2.057       .  S
Fe1          O12   1.980       .  S
Fe2           O5   2.041       .  S
Fe2           O9   2.068       .  S
Fe2          O13   2.028       .  S
Fe2          O18   2.060       .  S
Fe2          O12   1.954       .  S
Fe3          O21   2.105       .  S
Fe3           O8   2.056       .  S
Fe3          O15   2.043       .  S
Fe3           O4   2.086       .  S
Fe3          O12   1.983       .  S
O4           C11   1.271       .  A
O5           C19   1.267       .  A
O6           C11   1.267       .  A
O7           C10   1.276       .  A
O8           C20   1.262       .  A
O9           C22   1.267       .  A
C10          O15   1.264       .  A
C10        C2426   1.487       .  S
C11        C2509   1.476       .  S
O13          C16   1.265       .  A
O14          C16   1.275       .  A
C16        C2477   1.462       .  S
O17          C22   1.268       .  A
O18          C20   1.264       .  A
C19          O21   1.278       .  A
C19        C2490   1.487       .  S
C20        C2458   1.478       .  S
C22        C2442   1.481       .  S
Fe23         O39   2.079       .  S
Fe23         O29   2.079       .  S
Fe23         O36   2.092       .  S
Fe23         O28   2.064       .  S
Fe23         O34   1.972       .  S
Fe24         O27   2.046       .  S
Fe24         O31   2.048       .  S
Fe24         O35   2.046       .  S
Fe24         O40   2.052       .  S
Fe24         O34   1.944       .  S
Fe25         O43   2.081       .  S
Fe25         O30   2.087       .  S
Fe25         O37   2.076       .  S
Fe25         O26   2.074       .  S
Fe25         O34   1.972       .  S
O26          C33   1.273       .  A
O27          C41   1.267       .  A
O28          C33   1.272       .  A
O29          C32   1.270       .  A
O30          C42   1.271       .  A
O31          C44   1.269       .  A
C32          O37   1.270       .  A
C32        C2410   1.483       .  S
C33        C2346   1.494       .  S
O35          C38   1.264       .  A
O36          C38   1.271       .  A
C38        C2378   1.485       .  S
O39          C44   1.272       .  A
O40          C42   1.266       .  A
C41          O43   1.270       .  A
C41        C2362   1.475       .  S
C42        C2394   1.476       .  S
C44        C2461   1.470       .  S
Fe45         O61   2.076       .  S
Fe45         O51   2.073       .  S
Fe45         O58   2.094       .  S
Fe45         O50   2.067       .  S
Fe45         O56   1.967       .  S
Fe46         O49   2.066       .  S
Fe46         O53   2.061       .  S
Fe46         O57   2.070       .  S
Fe46         O62   2.054       .  S
Fe46         O56   1.942       .  S
Fe47         O65   2.058       .  S
Fe47         O52   2.096       .  S
Fe47         O59   2.080       .  S
Fe47         O48   2.060       .  S
Fe47         O56   1.968       .  S
O48          C55   1.272       .  A
O49          C63   1.271       .  A
O50          C55   1.275       .  A
O51          C54   1.267       .  A
O52          C64   1.274       .  A
O53          C66   1.271       .  A
C54          O59   1.269       .  A
C54        C2266   1.485       .  S
C55        C2282   1.470       .  S
O57          C60   1.267       .  A
O58          C60   1.269       .  A
C60        C2397   1.491       .  S
O61          C66   1.273       .  A
O62          C64   1.268       .  A
C63          O65   1.266       .  A
C63        C2314   1.479       .  S
C64        C2330   1.485       .  S
C66        C2298   1.468       .  S
Fe67         O83   2.085       .  S
Fe67         O73   2.076       .  S
Fe67         O80   2.084       .  S
Fe67         O72   2.069       .  S
Fe67         O78   1.981       .  S
Fe68         O71   2.053       .  S
Fe68         O75   2.061       .  S
Fe68         O79   2.045       .  S
Fe68         O84   2.067       .  S
Fe68         O78   1.955       .  S
Fe69         O87   2.097       .  S
Fe69         O74   2.063       .  S
Fe69         O81   2.055       .  S
Fe69         O70   2.076       .  S
Fe69         O78   1.987       .  S
O70          C77   1.266       .  A
O71          C85   1.265       .  A
O72          C77   1.266       .  A
O73          C76   1.276       .  A
O74          C86   1.267       .  A
O75          C88   1.268       .  A
C76          O81   1.272       .  A
C76        C2205   1.481       .  S
C77        C2253   1.480       .  S
O79          C82   1.267       .  A
O80          C82   1.274       .  A
C82        C2317   1.467       .  S
O83          C88   1.269       .  A
O84          C86   1.270       .  A
C85          O87   1.272       .  A
C85        C2445   1.484       .  S
C86        C2234   1.478       .  S
C88        C2218   1.493       .  S
Fe89        O105   2.097       .  S
Fe89         O95   2.060       .  S
Fe89        O102   2.077       .  S
Fe89         O94   2.083       .  S
Fe89        O100   1.987       .  S
Fe90         O93   2.057       .  S
Fe90         O97   2.030       .  S
Fe90        O101   2.060       .  S
Fe90        O106   2.035       .  S
Fe90        O100   1.957       .  S
Fe91        O109   2.058       .  S
Fe91         O96   2.100       .  S
Fe91        O103   2.079       .  S
Fe91         O92   2.045       .  S
Fe91        O100   1.995       .  S
O92          C99   1.266       .  A
O93         C107   1.267       .  A
O94          C99   1.272       .  A
O95          C98   1.269       .  A
O96         C108   1.274       .  A
O97         C110   1.263       .  A
C98         O103   1.271       .  A
C98        C2189   1.474       .  S
C99        C2170   1.491       .  S
O101        C104   1.268       .  A
O102        C104   1.269       .  A
C104       C2333   1.477       .  S
O105        C110   1.273       .  A
O106        C108   1.265       .  A
C107        O109   1.263       .  A
C107       C2474   1.473       .  S
C108       C2381   1.482       .  S
C110       C2237   1.469       .  S
Fe111       O127   2.089       .  S
Fe111       O117   2.066       .  S
Fe111       O124   2.081       .  S
Fe111       O116   2.075       .  S
Fe111       O122   1.970       .  S
Fe112       O115   2.050       .  S
Fe112       O119   2.045       .  S
Fe112       O123   2.056       .  S
Fe112       O128   2.042       .  S
Fe112       O122   1.946       .  S
Fe113       O131   2.097       .  S
Fe113       O118   2.072       .  S
Fe113       O125   2.062       .  S
Fe113       O114   2.085       .  S
Fe113       O122   1.978       .  S
O114        C121   1.273       .  A
O115        C129   1.268       .  A
O116        C121   1.272       .  A
O117        C120   1.270       .  A
O118        C130   1.266       .  A
O119        C132   1.265       .  A
C120        O125   1.269       .  A
C120       C2138   1.492       .  S
C121       C2154   1.491       .  S
O123        C126   1.268       .  A
O124        C126   1.272       .  A
C126       C2365   1.471       .  S
O127        C132   1.270       .  A
O128        C130   1.265       .  A
C129        O131   1.275       .  A
C129       C2221   1.481       .  S
C130       C2301   1.472       .  S
C132       C2493   1.484       .  S
Fe133       O149   2.096       .  S
Fe133       O139   2.067       .  S
Fe133       O146   2.077       .  S
Fe133       O138   2.087       .  S
Fe133       O144   1.954       .  S
Fe134       O137   2.066       .  S
Fe134       O141   2.059       .  S
Fe134       O145   2.061       .  S
Fe134       O150   2.053       .  S
Fe134       O144   1.934       .  S
Fe135       O153   2.083       .  S
Fe135       O140   2.076       .  S
Fe135       O147   2.071       .  S
Fe135       O136   2.071       .  S
Fe135       O144   1.963       .  S
O136        C143   1.270       .  A
O137        C151   1.271       .  A
O138        C143   1.273       .  A
O139        C142   1.271   1_556  A
O140        C152   1.268       .  A
O141        C154   1.268       .  A
C142        O147   1.271   1_554  A
C142       C2202   1.494       .  S
C143       C2125   1.478       .  S
O145        C148   1.270       .  A
O146        C148   1.272       .  A
C148       C2061   1.470       .  S
O149        C154   1.273       .  A
O150        C152   1.267       .  A
C151        O153   1.272       .  A
C151       C2106   1.476       .  S
C152       C2074   1.471       .  S
C154       C2090   1.488       .  S
Fe155       O171   2.075       .  S
Fe155       O161   2.071       .  S
Fe155       O168   2.084       .  S
Fe155       O160   2.063       .  S
Fe155       O166   1.960       .  S
Fe156       O159   2.066       .  S
Fe156       O163   2.067       .  S
Fe156       O167   2.065       .  S
Fe156       O172   2.059       .  S
Fe156       O166   1.936       .  S
Fe157       O175   2.058       .  S
Fe157       O162   2.086       .  S
Fe157       O169   2.072       .  S
Fe157       O158   2.065       .  S
Fe157       O166   1.958       .  S
O158        C165   1.273       .  A
O159        C173   1.270       .  A
O160        C165   1.274       .  A
O161        C164   1.267       .  A
O162        C174   1.274       .  A
O163        C176   1.273       .  A
C164        O169   1.268       .  A
C164       C2045   1.480       .  S
C165       C2285   1.491       .  S
O167        C170   1.266       .  A
O168        C170   1.267       .  A
C170       C1994   1.480       .  S
O171        C176   1.274       .  A
O172        C174   1.270       .  A
C173        O175   1.265       .  A
C173       C2013   1.479       .  S
C174       C2026   1.480       .  S
C176       C2077   1.467       .  S
Fe177       O193   2.071       .  S
Fe177       O183   2.064       .  S
Fe177       O190   2.082       .  S
Fe177       O182   2.065       .  S
Fe177       O188   1.973       .  S
Fe178       O181   2.053       .  S
Fe178       O185   2.049       .  S
Fe178       O189   2.056       .  S
Fe178       O194   2.039       .  S
Fe178       O188   1.946       .  S
Fe179       O197   2.078       .  S
Fe179       O184   2.084       .  S
Fe179       O191   2.079       .  S
Fe179       O180   2.075       .  S
Fe179       O188   1.974       .  S
O180        C187   1.275       .  A
O181        C195   1.268       .  A
O182        C187   1.275       .  A
O183        C186   1.265       .  A
O184        C196   1.270       .  A
O185        C198   1.271       .  A
C186        O191   1.268       .  A
C186       C1978   1.484       .  S
C187       C2173   1.474       .  S
O189        C192   1.263       .  A
O190        C192   1.267       .  A
C192       C1946   1.487       .  S
O193        C198   1.273       .  A
O194        C196   1.264       .  A
C195        O197   1.270       .  A
C195       C2058   1.478       .  S
C196       C1997   1.469       .  S
C198       C1962   1.463       .  S
Fe199       O215   2.077       .  S
Fe199       O205   2.087       .  S
Fe199       O212   2.098       .  S
Fe199       O204   2.054       .  S
Fe199       O210   1.989       .  S
Fe200       O203   2.041       .  S
Fe200       O207   2.050       .  S
Fe200       O211   2.036       .  S
Fe200       O216   2.055       .  S
Fe200       O210   1.960       .  S
Fe201       O219   2.099       .  S
Fe201       O206   2.054       .  S
Fe201       O213   2.050       .  S
Fe201       O202   2.081       .  S
Fe201       O210   1.989       .  S
O202        C209   1.269       .  A
O203        C217   1.265       .  A
O204        C209   1.265       .  A
O205        C208   1.276   1_556  A
O206        C218   1.264       .  A
O207        C220   1.264       .  A
C208        O213   1.267   1_554  A
C208       C2429   1.482       .  S
C209       C1930   1.475       .  S
O211        C214   1.266       .  A
O212        C214   1.275       .  A
C214       C1914   1.469       .  S
O215        C220   1.266       .  A
O216        C218   1.265       .  A
C217        O219   1.274       .  A
C217       C2093   1.482       .  S
C218       C1965   1.475       .  S
C220       C1898   1.476       .  S
Fe221       O237   2.092       .  S
Fe221       O227   2.051       .  S
Fe221       O234   2.068       .  S
Fe221       O226   2.078       .  S
Fe221       O232   1.988       .  S
Fe222       O225   2.060       .  S
Fe222       O229   2.026       .  S
Fe222       O233   2.055       .  S
Fe222       O238   2.029       .  S
Fe222       O232   1.959       .  S
Fe223       O241   2.064       .  S
Fe223       O228   2.109       .  S
Fe223       O235   2.095       .  S
Fe223       O224   2.045       .  S
Fe223       O232   1.993       .  S
O224        C231   1.266       .  A
O225        C239   1.266       .  A
O226        C231   1.271       .  A
O227        C230   1.267       .  A
O228        C240   1.277       .  A
O229        C242   1.264       .  A
C230        O235   1.275       .  A
C230       C1882   1.486       .  S
C231       C2349   1.490       .  S
O233        C236   1.266       .  A
O234        C236   1.265       .  A
C236       C2029   1.475       .  S
O237        C242   1.273       .  A
O238        C240   1.264       .  A
C239        O241   1.263       .  A
C239       C1917   1.476       .  S
C240       C1949   1.479       .  S
C242       C1866   1.463       .  S
Fe243       O259   2.082       .  S
Fe243       O249   2.068       .  S
Fe243       O256   2.077       .  S
Fe243       O248   2.069       .  S
Fe243       O254   1.970       .  S
Fe244       O247   2.055       .  S
Fe244       O251   2.073       .  S
Fe244       O255   2.053       .  S
Fe244       O260   2.065       .  S
Fe244       O254   1.948       .  S
Fe245       O263   2.087       .  S
Fe245       O250   2.060       .  S
Fe245       O257   2.062       .  S
Fe245       O246   2.067       .  S
Fe245       O254   1.980       .  S
O246        C253   1.265       .  A
O247        C261   1.268       .  A
O248        C253   1.267       .  A
O249        C252   1.273   1_556  A
O250        C262   1.267       .  A
O251        C264   1.270       .  A
C252        O257   1.272   1_554  A
C252       C2141   1.483       .  S
C253       C1850   1.474       .  S
O255        C258   1.268       .  A
O256        C258   1.272       .  A
C258       C2010   1.467       .  S
O259        C264   1.269       .  A
O260        C262   1.270       .  A
C261        O263   1.270       .  A
C261       C1901   1.481       .  S
C262       C1869   1.479       .  S
C264       C2109   1.493       .  S
Fe265       O281   2.091       .  S
Fe265       O271   2.071       .  S
Fe265       O278   2.087       .  S
Fe265       O270   2.077       .  S
Fe265       O276   1.966       .  S
Fe266       O269   2.051       .  S
Fe266       O273   2.057       .  S
Fe266       O277   2.048       .  S
Fe266       O282   2.056       .  S
Fe266       O276   1.941       .  S
Fe267       O285   2.081       .  S
Fe267       O272   2.068       .  S
Fe267       O279   2.057       .  S
Fe267       O268   2.067       .  S
Fe267       O276   1.973       .  S
O268        C275   1.268       .  A
O269        C283   1.267       .  A
O270        C275   1.270       .  A
O271        C274   1.274       .  A
O272        C284   1.267       .  A
O273        C286   1.266       .  A
C274        O279   1.269       .  A
C274       C1754   1.469       .  S
C275       C1834   1.477       .  S
O277        C280   1.268       .  A
O278        C280   1.275       .  A
C280       C1802   1.470       .  S
O281        C286   1.270       .  A
O282        C284   1.268       .  A
C283        O285   1.269       .  A
C283       C1818   1.476       .  S
C284       C1786   1.471       .  S
C286       C1770   1.485       .  S
Fe287       O303   2.084       .  S
Fe287       O293   2.066       .  S
Fe287       O300   2.085       .  S
Fe287       O292   2.080       .  S
Fe287       O298   1.986       .  S
Fe288       O291   2.061       .  S
Fe288       O295   2.032       .  S
Fe288       O299   2.053       .  S
Fe288       O304   2.037       .  S
Fe288       O298   1.958       .  S
Fe289       O307   2.054       .  S
Fe289       O294   2.092       .  S
Fe289       O301   2.077       .  S
Fe289       O290   2.042       .  S
Fe289       O298   1.992       .  S
O290        C297   1.266       .  A
O291        C305   1.267       .  A
O292        C297   1.274       .  A
O293        C296   1.267       .  A
O294        C306   1.272       .  A
O295        C308   1.266       .  A
C296        O301   1.268       .  A
C296       C1885   1.478       .  S
C297       C1690   1.477       .  S
O299        C302   1.266       .  A
O300        C302   1.268       .  A
C302       C1722   1.488       .  S
O303        C308   1.273       .  A
O304        C306   1.264       .  A
C305        O307   1.263       .  A
C305       C1805   1.473       .  S
C306       C1741   1.475       .  S
C308       C1706   1.464       .  S
Fe309       O325   2.091       .  S
Fe309       O315   2.063       .  S
Fe309       O322   2.078       .  S
Fe309       O314   2.073       .  S
Fe309       O320   1.976       .  S
Fe310       O313   2.057       .  S
Fe310       O317   2.044       .  S
Fe310       O321   2.054       .  S
Fe310       O326   2.045       .  S
Fe310       O320   1.953       .  S
Fe311       O329   2.058       .  S
Fe311       O316   2.100       .  S
Fe311       O323   2.080       .  S
Fe311       O312   2.053       .  S
Fe311       O320   1.986       .  S
O312        C319   1.268       .  A
O313        C327   1.268       .  A
O314        C319   1.274       .  A
O315        C318   1.266       .  A
O316        C328   1.273       .  A
O317        C330   1.266       .  A
C318        O323   1.270       .  A
C318       C1981   1.476       .  S
C319       C1626   1.473       .  S
O321        C324   1.267       .  A
O322        C324   1.267       .  A
C324       C1661   1.479       .  S
O325        C330   1.275       .  A
O326        C328   1.265       .  A
C327        O329   1.265       .  A
C327       C1674   1.466       .  S
C328       C1725   1.485       .  S
C330       C1645   1.472       .  S
Fe331       O347   2.070       .  S
Fe331       O337   2.087       .  S
Fe331       O344   2.094       .  S
Fe331       O336   2.046       .  S
Fe331       O342   1.975       .  S
Fe332       O335   2.028       .  S
Fe332       O339   2.061       .  S
Fe332       O343   2.026       .  S
Fe332       O348   2.061       .  S
Fe332       O342   1.949       .  S
Fe333       O351   2.118       .  S
Fe333       O338   2.053       .  S
Fe333       O345   2.040       .  S
Fe333       O334   2.096       .  S
Fe333       O342   1.985       .  S
O334        C341   1.272       .  A
O335        C349   1.264       .  A
O336        C341   1.264       .  A
O337        C340   1.276       .  A
O338        C350   1.263       .  A
O339        C352   1.266       .  A
C340        O345   1.269       .  A
C340       C1578   1.491       .  S
C341       C1610   1.480       .  S
O343        C346   1.264       .  A
O344        C346   1.275       .  A
C346       C1677   1.463       .  S
O347        C352   1.265       .  A
O348        C350   1.269       .  A
C349        O351   1.278       .  A
C349       C1773   1.484       .  S
C350       C1709   1.470       .  S
C352       C1594   1.476       .  S
Fe353       O369   2.074       .  S
Fe353       O359   2.067       .  S
Fe353       O366   2.081       .  S
Fe353       O358   2.064       .  S
Fe353       O364   1.970       .  S
Fe354       O357   2.078       .  S
Fe354       O361   2.060       .  S
Fe354       O365   2.074       .  S
Fe354       O370   2.057       .  S
Fe354       O364   1.948       .  S
Fe355       O373   2.052       .  S
Fe355       O360   2.084       .  S
Fe355       O367   2.070       .  S
Fe355       O356   2.061       .  S
Fe355       O364   1.969       .  S
O356        C363   1.270       .  A
O357        C371   1.271       .  A
O358        C363   1.275       .  A
O359        C362   1.265       .  A
O360        C372   1.272       .  A
O361        C374   1.271       .  A
C362        O367   1.267       .  A
C362       C2042   1.478       .  S
C363       C1546   1.471       .  S
O365        C368   1.268       .  A
O366        C368   1.266       .  A
C368       C1738   1.486       .  S
O369        C374   1.274       .  A
O370        C372   1.269       .  A
C371        O373   1.264       .  A
C371       C1562   1.479       .  S
C372       C1658   1.479       .  S
C374       C1789   1.465       .  S
Fe375       O391   2.075       .  S
Fe375       O381   2.080       .  S
Fe375       O388   2.092       .  S
Fe375       O380   2.063       .  S
Fe375       O386   1.984       .  S
Fe376       O379   2.030       .  S
Fe376       O383   2.052       .  S
Fe376       O387   2.033       .  S
Fe376       O392   2.059       .  S
Fe376       O386   1.960       .  S
Fe377       O395   2.099       .  S
Fe377       O382   2.068       .  S
Fe377       O389   2.058       .  S
Fe377       O378   2.085       .  S
Fe377       O386   1.989       .  S
O378        C385   1.270       .  A
O379        C393   1.262       .  A
O380        C385   1.267       .  A
O381        C384   1.274       .  A
O382        C394   1.267       .  A
O383        C396   1.266       .  A
C384        O389   1.270       .  A
C384       C1514   1.498       .  S
C385       C1530   1.483       .  S
O387        C390   1.263       .  A
O388        C390   1.274       .  A
C390       C1565   1.467       .  S
O391        C396   1.268       .  A
O392        C394   1.268       .  A
C393        O395   1.273       .  A
C393       C1597   1.478       .  S
C394       C1642   1.477       .  S
C396       C1821   1.479       .  S
Fe397       O413   2.088       .  S
Fe397       O403   2.061       .  S
Fe397       O410   2.087       .  S
Fe397       O402   2.083   1_554  S
Fe397       O408   1.988       .  S
Fe398       O401   2.060       .  S
Fe398       O405   2.039       .  S
Fe398       O409   2.061       .  S
Fe398       O414   2.043       .  S
Fe398       O408   1.957       .  S
Fe399       O417   2.054       .  S
Fe399       O404   2.088       .  S
Fe399       O411   2.070       .  S
Fe399       O400   2.035   1_554  S
Fe399       O408   1.998       .  S
O400        C407   1.262       .  A
O401        C415   1.268       .  A
O402        C407   1.272       .  A
O403        C406   1.269       .  A
O404        C416   1.272       .  A
O405        C418   1.265       .  A
C406        O411   1.268       .  A
C406       C1434   1.471       .  S
C407       C1629   1.465       .  S
O409        C412   1.268       .  A
O410        C412   1.271       .  A
C412       C1450   1.487       .  S
O413        C418   1.272       .  A
O414        C416   1.266       .  A
C415        O417   1.261       .  A
C415       C1485   1.474       .  S
C416       C1498   1.474       .  S
C418       C1469   1.467       .  S
Fe419       O435   2.094       .  S
Fe419       O425   2.071       .  S
Fe419       O432   2.079       .  S
Fe419       O424   2.072       .  S
Fe419       O430   1.974       .  S
Fe420       O423   2.048       .  S
Fe420       O427   2.052       .  S
Fe420       O431   2.045       .  S
Fe420       O436   2.056       .  S
Fe420       O430   1.950       .  S
Fe421       O439   2.088       .  S
Fe421       O426   2.072       .  S
Fe421       O433   2.064       .  S
Fe421       O422   2.080       .  S
Fe421       O430   1.973       .  S
O422        C429   1.271       .  A
O423        C437   1.265       .  A
O424        C429   1.270       .  A
O425        C428   1.273       .  A
O426        C438   1.268       .  A
O427        C440   1.266       .  A
C428        O433   1.270       .  A
C428       C1517   1.477       .  S
C429       C2506   1.487       .  S
O431        C434   1.266       .  A
O432        C434   1.271       .  A
C434       C1482   1.466       .  S
O435        C440   1.272       .  A
O436        C438   1.267       .  A
C437        O439   1.272       .  A
C437       C1418   1.473       .  S
C438       C1402   1.480       .  S
C440       C1386   1.487       .  S
Fe441       O457   2.084       .  S
Fe441       O447   2.064       .  S
Fe441       O454   2.083       .  S
Fe441       O446   2.063       .  S
Fe441       O452   1.991       .  S
Fe442       O445   2.035       .  S
Fe442       O449   2.045       .  S
Fe442       O453   2.028       .  S
Fe442       O458   2.049       .  S
Fe442       O452   1.958       .  S
Fe443       O461   2.109       .  S
Fe443       O448   2.075       .  S
Fe443       O455   2.057       .  S
Fe443       O444   2.090       .  S
Fe443       O452   1.992       .  S
O444        C451   1.273       .  A
O445        C459   1.264       .  A
O446        C451   1.268       .  A
O447        C450   1.269       .  A
O448        C460   1.267       .  A
O449        C462   1.266       .  A
C450        O455   1.269       .  A
C450       C1581   1.495       .  S
C451       C2157   1.482       .  S
O453        C456   1.262       .  A
O454        C456   1.270       .  A
C456       C1370   1.463       .  S
O457        C462   1.269       .  A
O458        C460   1.266       .  A
C459        O461   1.276       .  A
C459       C1389   1.487       .  S
C460       C1466   1.481       .  S
C462       C1354   1.482       .  S
Fe463       O479   2.085       .  S
Fe463       O469   2.069       .  S
Fe463       O476   2.086       .  S
Fe463       O468   2.077   1_554  S
Fe463       O474   1.968       .  S
Fe464       O467   2.067       .  S
Fe464       O471   2.049       .  S
Fe464       O475   2.066       .  S
Fe464       O480   2.053       .  S
Fe464       O474   1.942       .  S
Fe465       O483   2.051       .  S
Fe465       O470   2.107       .  S
Fe465       O477   2.086       .  S
Fe465       O466   2.059   1_554  S
Fe465       O474   1.965       .  S
O466        C473   1.270       .  A
O467        C481   1.267       .  A
O468        C473   1.275       .  A
O469        C472   1.267       .  A
O470        C482   1.279       .  A
O471        C484   1.270       .  A
C472        O477   1.271       .  A
C472       C1338   1.480       .  S
C473       C1693   1.495       .  S
O475        C478   1.267       .  A
O476        C478   1.269       .  A
C478       C1322   1.484       .  S
O479        C484   1.274       .  A
O480        C482   1.270       .  A
C481        O483   1.262       .  A
C481       C1373   1.470       .  S
C482       C1453   1.489       .  S
C484       C1306   1.472       .  S
Fe485       O501   2.079       .  S
Fe485       O491   2.062       .  S
Fe485       O498   2.069       .  S
Fe485       O490   2.059   1_554  S
Fe485       O496   1.955       .  S
Fe486       O489   2.063       .  S
Fe486       O493   2.062       .  S
Fe486       O497   2.063       .  S
Fe486       O502   2.058       .  S
Fe486       O496   1.932       .  S
Fe487       O505   2.056       .  S
Fe487       O492   2.094       .  S
Fe487       O499   2.078       .  S
Fe487       O488   2.065   1_554  S
Fe487       O496   1.961       .  S
O488        C495   1.268       .  A
O489        C503   1.269       .  A
O490        C495   1.273       .  A
O491        C494   1.267       .  A
O492        C504   1.277       .  A
O493        C506   1.271       .  A
C494        O499   1.270       .  A
C494       C1290   1.475       .  S
C495       C1549   1.488       .  S
O497        C500   1.268       .  A
O498        C500   1.266       .  A
C500       C1501   1.477       .  S
O501        C506   1.274       .  A
O502        C504   1.269       .  A
C503        O505   1.265       .  A
C503       C1274   1.465       .  S
C504       C1325   1.477       .  S
C506       C1405   1.471       .  S
Fe507       O523   2.076       .  S
Fe507       O513   2.089       .  S
Fe507       O520   2.110       .  S
Fe507       O512   2.050       .  S
Fe507       O518   1.961       .  S
Fe508       O511   2.026       .  S
Fe508       O515   2.066       .  S
Fe508       O519   2.025       .  S
Fe508       O524   2.061       .  S
Fe508       O518   1.942       .  S
Fe509       O527   2.128       .  S
Fe509       O514   2.054       .  S
Fe509       O521   2.032       .  S
Fe509       O510   2.097       .  S
Fe509       O518   1.961       .  S
O510        C517   1.275       .  A
O511        C525   1.270       .  A
O512        C517   1.267       .  A
O513        C516   1.275       .  A
O514        C526   1.258       .  A
O515        C528   1.264       .  A
C516        O521   1.265       .  A
C516       C1757   1.485       .  S
C517       C2250   1.481       .  S
O519        C522   1.268       .  A
O520        C522   1.282       .  A
C522       C1277   1.470       .  S
O523        C528   1.264       .  A
O524        C526   1.263       .  A
C525        O527   1.285       .  A
C525       C1357   1.488       .  S
C526       C1309   1.468       .  S
C528       C1421   1.479       .  S
Fe529       O545   2.106       .  S
Fe529       O535   2.065       .  S
Fe529       O542   2.072       .  S
Fe529       O534   2.088       .  S
Fe529       O540   1.982       .  S
Fe530       O533   2.058       .  S
Fe530       O537   2.030       .  S
Fe530       O541   2.058       .  S
Fe530       O546   2.032   1_655  S
Fe530       O540   1.955       .  S
Fe531       O549   2.069   1_655  S
Fe531       O536   2.101   1_655  S
Fe531       O543   2.084       .  S
Fe531       O532   2.053       .  S
Fe531       O540   1.989       .  S
O532        C539   1.270       .  A
O533        C547   1.269   1_655  A
O534        C539   1.276       .  A
O535        C538   1.267       .  A
O536        C548   1.272       .  A
O537        C550   1.263       .  A
C538        O543   1.270       .  A
C538       C2413   1.481       .  S
C539       C1194   1.497       .  S
O541        C544   1.268       .  A
O542        C544   1.267       .  A
C544       C1242   1.480       .  S
O545        C550   1.277       .  A
O546        C548   1.261       .  A
C547        O549   1.268       .  A
C547       C1226   1.476       .  S
C548       C1261   1.482       .  S
C550       C1210   1.478       .  S
Fe551       O567   2.100       .  S
Fe551       O557   2.062       .  S
Fe551       O564   2.085       .  S
Fe551       O556   2.085       .  S
Fe551       O562   1.963       .  S
Fe552       O555   2.050       .  S
Fe552       O559   2.051       .  S
Fe552       O563   2.049       .  S
Fe552       O568   2.050       .  S
Fe552       O562   1.938       .  S
Fe553       O571   2.077       .  S
Fe553       O558   2.085       .  S
Fe553       O565   2.074       .  S
Fe553       O554   2.065       .  S
Fe553       O562   1.968       .  S
O554        C561   1.269       .  A
O555        C569   1.266       .  A
O556        C561   1.273       .  A
O557        C560   1.270       .  A
O558        C570   1.272       .  A
O559        C572   1.268       .  A
C560        O565   1.272       .  A
C560       C1133   1.497       .  S
C561       C1837   1.479       .  S
O563        C566   1.267       .  A
O564        C566   1.272       .  A
C566       C1229   1.472       .  S
O567        C572   1.273       .  A
O568        C570   1.267       .  A
C569        O571   1.269       .  A
C569       C1181   1.471       .  S
C570       C1149   1.478       .  S
C572       C1162   1.489       .  S
Fe573       O589   2.083       .  S
Fe573       O579   2.071       .  S
Fe573       O586   2.089       .  S
Fe573       O578   2.063       .  S
Fe573       O584   1.970       .  S
Fe574       O577   2.050   1_545  S
Fe574       O581   2.055       .  S
Fe574       O585   2.054       .  S
Fe574       O590   2.052   1_545  S
Fe574       O584   1.944       .  S
Fe575       O593   2.077       .  S
Fe575       O580   2.082       .  S
Fe575       O587   2.072   1_565  S
Fe575       O576   2.076       .  S
Fe575       O584   1.977   1_565  S
O576        C583   1.273   1_565  A
O577        C591   1.266       .  A
O578        C583   1.272       .  A
O579        C582   1.269       .  A
O580        C592   1.272       .  A
O581        C594   1.269       .  A
C582        O587   1.269       .  A
C582       C2186   1.479       .  S
C583       C1085   1.492       .  S
O585        C588   1.267       .  A
O586        C588   1.269       .  A
C588       C1258   1.490       .  S
O589        C594   1.273       .  A
O590        C592   1.269       .  A
C591        O593   1.268       .  A
C591       C1098   1.476       .  S
C592       C1117   1.477       .  S
C594       C1146   1.470       .  S
Fe595       O611   2.072       .  S
Fe595       O601   2.079       .  S
Fe595       O608   2.091       .  S
Fe595       O600   2.056       .  S
Fe595       O606   1.987       .  S
Fe596       O599   2.034   1_565  S
Fe596       O603   2.057       .  S
Fe596       O607   2.037       .  S
Fe596       O612   2.062   1_565  S
Fe596       O606   1.958       .  S
Fe597       O615   2.103       .  S
Fe597       O602   2.070       .  S
Fe597       O609   2.063       .  S
Fe597       O598   2.087   1_545  S
Fe597       O606   1.988   1_545  S
O598        C605   1.270       .  A
O599        C613   1.263       .  A
O600        C605   1.264       .  A
O601        C604   1.275       .  A
O602        C614   1.268       .  A
O603        C616   1.266       .  A
C604        O609   1.271   1_565  A
C604       C1034   1.479       .  S
C605       C1533   1.481       .  S
O607        C610   1.265       .  A
O608        C610   1.274       .  A
C610       C1053   1.469       .  S
O611        C616   1.266       .  A
O612        C614   1.268       .  A
C613        O615   1.273       .  A
C613       C1165   1.486       .  S
C614       C1213   1.488       .  S
C616       C1066   1.478       .  S
Fe617       O633   2.081       .  S
Fe617       O623   2.064       .  S
Fe617       O630   2.083       .  S
Fe617       O622   2.062       .  S
Fe617       O628   1.986       .  S
Fe618       O621   2.058       .  S
Fe618       O625   2.042       .  S
Fe618       O629   2.061       .  S
Fe618       O634   2.051       .  S
Fe618       O628   1.958       .  S
Fe619       O637   2.068       .  S
Fe619       O624   2.089       .  S
Fe619       O631   2.076       .  S
Fe619       O620   2.059       .  S
Fe619       O628   1.991       .  S
O620        C627   1.269       .  A
O621        C635   1.267       .  A
O622        C627   1.270       .  A
O623        C626   1.267       .  A
O624        C636   1.272       .  A
O625        C638   1.267       .  A
C626        O631   1.269       .  A
C626       C2269   1.477       .  S
C627       C1002   1.478       .  S
O629        C632   1.269       .  A
O630        C632   1.267       .  A
C632       C1114   1.491       .  S
O633        C638   1.271       .  A
O634        C636   1.267       .  A
C635        O637   1.266       .  A
C635       C1050   1.479       .  S
C636       C1245   1.481       .  S
C638       C1021   1.465       .  S
Fe639       O655   2.073       .  S
Fe639       O645   2.071       .  S
Fe639       O652   2.082       .  S
Fe639       O644   2.057       .  S
Fe639       O650   1.975   1_455  S
Fe640       O643   2.049       .  S
Fe640       O647   2.067   1_655  S
Fe640       O651   2.053   1_655  S
Fe640       O656   2.056       .  S
Fe640       O650   1.958       .  S
Fe641       O659   2.089       .  S
Fe641       O646   2.059       .  S
Fe641       O653   2.050       .  S
Fe641       O642   2.084       .  S
Fe641       O650   1.993       .  S
O642        C649   1.269   1_655  A
O643        C657   1.268       .  A
O644        C649   1.265       .  A
O645        C648   1.273   1_455  A
O646        C658   1.264       .  A
O647        C660   1.266       .  A
C648        O653   1.269       .  A
C648        C986   1.491       .  S
C649       C1613   1.489       .  S
O651        C654   1.269       .  A
O652        C654   1.274       .  A
C654       C1101   1.468       .  S
O655        C660   1.266       .  A
O656        C658   1.267       .  A
C657        O659   1.271       .  A
C657       C1069   1.476       .  S
C658       C1018   1.468       .  S
C660       C1178   1.489       .  S
Fe661       O677   2.071       .  S
Fe661       O667   2.074       .  S
Fe661       O674   2.093       .  S
Fe661       O666   2.052       .  S
Fe661       O672   1.978       .  S
Fe662       O665   2.051       .  S
Fe662       O669   2.056       .  S
Fe662       O673   2.048       .  S
Fe662       O678   2.051       .  S
Fe662       O672   1.946       .  S
Fe663       O681   2.110   1_655  S
Fe663       O668   2.059   1_655  S
Fe663       O675   2.030       .  S
Fe663       O664   2.099       .  S
Fe663       O672   1.973       .  S
O664        C671   1.280       .  A
O665        C679   1.272   1_655  A
O666        C671   1.272       .  A
O667        C670   1.267       .  A
O668        C680   1.259       .  A
O669        C682   1.267       .  A
C670        O675   1.259       .  A
C670        C989   1.475       .  S
C671       C1853   1.480       .  S
O673        C676   1.268       .  A
O674        C676   1.273       .  A
C676        C922   1.474       .  S
O677        C682   1.268       .  A
O678        C680   1.261   1_655  A
C679        O681   1.282       .  A
C679        C973   1.490       .  S
C680        C954   1.473       .  S
C682        C938   1.478       .  S
Fe683       O699   2.095       .  S
Fe683       O689   2.056       .  S
Fe683       O696   2.082       .  S
Fe683       O688   2.081       .  S
Fe683       O694   1.983       .  S
Fe684       O687   2.057   1_565  S
Fe684       O691   2.044       .  S
Fe684       O695   2.068       .  S
Fe684       O700   2.060   1_565  S
Fe684       O694   1.952       .  S
Fe685       O703   2.051       .  S
Fe685       O690   2.105       .  S
Fe685       O697   2.089   1_545  S
Fe685       O686   2.036       .  S
Fe685       O694   1.976   1_545  S
O686        C693   1.260   1_545  A
O687        C701   1.262       .  A
O688        C693   1.269       .  A
O689        C692   1.271       .  A
O690        C702   1.282       .  A
O691        C704   1.267       .  A
C692        O697   1.277       .  A
C692       C1437   1.476       .  S
C693       C1082   1.476       .  S
O695        C698   1.268       .  A
O696        C698   1.270       .  A
C698        C877   1.482   1_455  S
O699        C704   1.273       .  A
O700        C702   1.273       .  A
C701        O703   1.258       .  A
C701        C893   1.469       .  S
C702        C909   1.499       .  S
C704        C957   1.472       .  S
Fe705       O721   2.087       .  S
Fe705       O711   2.078       .  S
Fe705       O718   2.084       .  S
Fe705       O710   2.072       .  S
Fe705       O716   1.987       .  S
Fe706       O709   2.043       .  S
Fe706       O713   2.055       .  S
Fe706       O717   2.032       .  S
Fe706       O722   2.055       .  S
Fe706       O716   1.956       .  S
Fe707       O725   2.107       .  S
Fe707       O712   2.057       .  S
Fe707       O719   2.042       .  S
Fe707       O708   2.087       .  S
Fe707       O716   1.986       .  S
O708        C715   1.276       .  A
O709        C723   1.269       .  A
O710        C715   1.273       .  A
O711        C714   1.269       .  A
O712        C724   1.260       .  A
O713        C726   1.267       .  A
C714        O719   1.263       .  A
C714       C1130   1.488       .  S
C715       C2122   1.485       .  S
O717        C720   1.264       .  A
O718        C720   1.271       .  A
C720        C890   1.469       .  S
O721        C726   1.272       .  A
O722        C724   1.264       .  A
C723        O725   1.278       .  A
C723        C861   1.489       .  S
C724        C845   1.476       .  S
C726        C970   1.486       .  S
Fe727       O743   2.077       .  S
Fe727       O733   2.073       .  S
Fe727       O740   2.084       .  S
Fe727       O732   2.067       .  S
Fe727       O738   1.988       .  S
Fe728       O731   2.043   1_545  S
Fe728       O735   2.062       .  S
Fe728       O739   2.035       .  S
Fe728       O744   2.061   1_545  S
Fe728       O738   1.960       .  S
Fe729       O747   2.088       .  S
Fe729       O734   2.060       .  S
Fe729       O741   2.051       .  S
Fe729       O730   2.079   1_565  S
Fe729       O738   1.986   1_565  S
O730        C737   1.273       .  A
O731        C745   1.267       .  A
O732        C737   1.272       .  A
O733        C736   1.269       .  A
O734        C746   1.262       .  A
O735        C748   1.269       .  A
C736        O741   1.262   1_545  A
C736       C1037   1.490       .  S
C737       C1933   1.477       .  S
O739        C742   1.264       .  A
O740        C742   1.270       .  A
C742        C826   1.467       .  S
O743        C748   1.269       .  A
O744        C746   1.266       .  A
C745        O747   1.275       .  A
C745        C941   1.468       .  S
C746        C810   1.481       .  S
C748        C858   1.482       .  S
Fe749       O765   2.100       .  S
Fe749       O755   2.072       .  S
Fe749       O762   2.090       .  S
Fe749       O754   2.085       .  S
Fe749       O760   1.981       .  S
Fe750       O753   2.052   1_455  S
Fe750       O757   2.025       .  S
Fe750       O761   2.068       .  S
Fe750       O766   2.031   1_455  S
Fe750       O760   1.945       .  S
Fe751       O769   2.054       .  S
Fe751       O756   2.100       .  S
Fe751       O763   2.089       .  S
Fe751       O752   2.041       .  S
Fe751       O760   1.975   1_655  S
O752        C759   1.261       .  A
O753        C767   1.262       .  A
O754        C759   1.270   1_455  A
O755        C758   1.276       .  A
O756        C768   1.279       .  A
O757        C770   1.261       .  A
C758        O763   1.278   1_455  A
C758       C1341   1.482       .  S
C759       C1197   1.486       .  S
O761        C764   1.269       .  A
O762        C764   1.273       .  A
C764        C906   1.487       .  S
O765        C770   1.273       .  A
O766        C768   1.268       .  A
C767        O769   1.259       .  A
C767        C829   1.475       .  S
C768        C794   1.471       .  S
C770        C842   1.471       .  S
Fe771       O787   2.074       .  S
Fe771       O777   2.081       .  S
Fe771       O784   2.082       .  S
Fe771       O776   2.059       .  S
Fe771       O782   1.950       .  S
Fe772       O775   2.050       .  S
Fe772       O779   2.063       .  S
Fe772       O783   2.045       .  S
Fe772       O788   2.074       .  S
Fe772       O782   1.927       .  S
Fe773       O791   2.081       .  S
Fe773       O778   2.085       .  S
Fe773       O785   2.072       .  S
Fe773       O774   2.074       .  S
Fe773       O782   1.951       .  S
O774        C781   1.271       .  A
O775        C789   1.263       .  A
O776        C781   1.268       .  A
O777        C780   1.272       .  A
O778        C790   1.276       .  A
O779        C792   1.270       .  A
C780        O785   1.274       .  A
C780       C1293   1.496       .  S
C781       C1005   1.492       .  S
O783        C786   1.267       .  A
O784        C786   1.271       .  A
C786        C797   1.471       .  S
O787        C792   1.270       .  A
O788        C790   1.274       .  A
C789        O791   1.269       .  A
C789        C925   1.481       .  S
C790        C874   1.479       .  S
C792        C813   1.469       .  S
C793        C794   1.406       .  A
C793        C798   1.412       .  A
C793        H800   1.084       .  S
C794        C795   1.414       .  A
C795        C796   1.392   1_545  A
C795        C802   1.512       .  S
C796        C797   1.400       .  A
C796        H801   1.085       .  S
C797        C798   1.411   1_565  A
C798        C799   1.504   1_545  S
C799        H803   1.111   1_565  S
C799        H804   1.110       .  S
C799        H805   1.110       .  S
C802        H806   1.108       .  S
C802        H807   1.110       .  S
C802        H808   1.111       .  S
C809        C810   1.403   1_554  A
C809        C814   1.401       .  A
C809        H816   1.084       .  S
C810        C811   1.419       .  A
C811        C812   1.406   1_556  A
C811        C818   1.508       .  S
C812        C813   1.400       .  A
C812        H817   1.084       .  S
C813        C814   1.410       .  A
C814        C815   1.505       .  S
C815        H819   1.111       .  S
C815        H820   1.103       .  S
C815        H821   1.110       .  S
C818        H822   1.107       .  S
C818        H823   1.110       .  S
C818        H824   1.111       .  S
C825        C826   1.401       .  A
C825        C830   1.403   1_556  A
C825        H832   1.085       .  S
C826        C827   1.412       .  A
C827        C828   1.402       .  A
C827        C834   1.506       .  S
C828        C829   1.402   1_556  A
C828        H833   1.085       .  S
C829        C830   1.415       .  A
C830        C831   1.508       .  S
C831        H835   1.111       .  S
C831        H836   1.110       .  S
C831        H837   1.110       .  S
C834        H838   1.110       .  S
C834        H839   1.109       .  S
C834        H840   1.111       .  S
C841        C842   1.404       .  A
C841        C846   1.403   1_554  A
C841        H848   1.085       .  S
C842        C843   1.411       .  A
C843        C844   1.401   1_554  A
C843        C850   1.502       .  S
C844        C845   1.401       .  A
C844        H849   1.083       .  S
C845        C846   1.414       .  A
C846        C847   1.505       .  S
C847        H851   1.111       .  S
C847        H852   1.108       .  S
C847        H853   1.110       .  S
C850        H854   1.108       .  S
C850        H855   1.110       .  S
C850        H856   1.111       .  S
C857        C858   1.408       .  A
C857        C862   1.413   1_655  A
C857        H864   1.084       .  S
C858        C859   1.412       .  A
C859        C860   1.398   1_655  A
C859        C866   1.509       .  S
C860        C861   1.407       .  A
C860        H865   1.085       .  S
C861        C862   1.414       .  A
C862        C863   1.504       .  S
C863        H867   1.111       .  S
C863        H868   1.110       .  S
C863        H869   1.107       .  S
C866        H870   1.109       .  S
C866        H871   1.110       .  S
C866        H872   1.110       .  S
C873        C874   1.406       .  A
C873        C878   1.412       .  A
C873        H880   1.084       .  S
C874        C875   1.410       .  A
C875        C876   1.402       .  A
C875        C882   1.507       .  S
C876        C877   1.405       .  A
C876        H881   1.083       .  S
C877        C878   1.416       .  A
C878        C879   1.505       .  S
C879        H883   1.110       .  S
C879        H884   1.110       .  S
C879        H885   1.108   1_655  S
C882        H886   1.109       .  S
C882        H887   1.110       .  S
C882        H888   1.107       .  S
C889        C890   1.402       .  A
C889        C894   1.403       .  A
C889        H896   1.081       .  S
C890        C891   1.412       .  A
C891        C892   1.400   1_556  A
C891        C898   1.508       .  S
C892        C893   1.401       .  A
C892        H897   1.084       .  S
C893        C894   1.411   1_554  A
C894        C895   1.503       .  S
C895        H899   1.111       .  S
C895        H900   1.109   1_545  S
C895        H901   1.108       .  S
C898        H902   1.107       .  S
C898        H903   1.110       .  S
C898        H904   1.111   1_556  S
C905        C906   1.402       .  A
C905        C910   1.403       .  A
C905        H912   1.085       .  S
C906        C907   1.417       .  A
C907        C908   1.412       .  A
C907        C914   1.505       .  S
C908        C909   1.409       .  A
C908        H913   1.084       .  S
C909        C910   1.422       .  A
C910        C911   1.510       .  S
C911        H915   1.111   1_455  S
C911        H916   1.110   1_545  S
C911        H917   1.109       .  S
C914        H918   1.107       .  S
C914        H919   1.109       .  S
C914        H920   1.110       .  S
C921        C922   1.402       .  A
C921        C926   1.404       .  A
C921        H928   1.084       .  S
C922        C923   1.410       .  A
C923        C924   1.402   1_556  A
C923        C930   1.505       .  S
C924        C925   1.405       .  A
C924        H929   1.083       .  S
C925        C926   1.416   1_554  A
C926        C927   1.508       .  S
C927        H931   1.111       .  S
C927        H932   1.107       .  S
C927        H933   1.110       .  S
C930        H934   1.104       .  S
C930        H935   1.110       .  S
C930        H936   1.111   1_556  S
C937        C938   1.404       .  A
C937        C942   1.393       .  A
C937        H944   1.085       .  S
C938        C939   1.417       .  A
C939        C940   1.410       .  A
C939        C946   1.506       .  S
C940        C941   1.405       .  A
C940        H945   1.085       .  S
C941        C942   1.411       .  A
C942        C943   1.510       .  S
C943        H947   1.111       .  S
C943        H948   1.108       .  S
C943        H949   1.105       .  S
C946        H950   1.106       .  S
C946        H951   1.111       .  S
C946        H952   1.110       .  S
C953        C954   1.403       .  A
C953        C958   1.404       .  A
C953        H960   1.084       .  S
C954        C955   1.411       .  A
C955        C956   1.402   1_556  A
C955        C962   1.502   1_456  S
C956        C957   1.400       .  A
C956        H961   1.084       .  S
C957        C958   1.412   1_554  A
C958        C959   1.506       .  S
C959        H963   1.111       .  S
C959        H964   1.110   1_556  S
C959        H965   1.106       .  S
C962        H966   1.111   1_554  S
C962        H967   1.108   1_554  S
C962        H968   1.110       .  S
C969        C970   1.401       .  A
C969        C974   1.402   1_545  A
C969        H976   1.084       .  S
C970        C971   1.416       .  A
C971        C972   1.412   1_545  A
C971        C978   1.504       .  S
C972        C973   1.405       .  A
C972        H977   1.084       .  S
C973        C974   1.421       .  A
C974        C975   1.511   1_455  S
C975        H979   1.110       .  S
C975        H980   1.108       .  S
C975        H981   1.110       .  S
C978        H982   1.107       .  S
C978        H983   1.110       .  S
C978        H984   1.111   1_545  S
C985        C986   1.412       .  A
C985        C990   1.401       .  A
C985        H992   1.084       .  S
C986        C987   1.419   1_655  A
C987        C988   1.402   1_455  A
C987        C994   1.509       .  S
C988        C989   1.403       .  A
C988        H993   1.085   1_655  S
C989        C990   1.408       .  A
C990        C991   1.507       .  S
C991        H995   1.111       .  S
C991        H996   1.110       .  S
C991        H997   1.109       .  S
C994        H998   1.111       .  S
C994        H999   1.110       .  S
C994       H1000   1.111       .  S
C1001      C1002   1.404       .  A
C1001      C1006   1.403       .  A
C1001      H1008   1.084       .  S
C1002      C1003   1.410       .  A
C1003      C1004   1.402       .  A
C1003      C1010   1.508       .  S
C1004      C1005   1.411       .  A
C1004      H1009   1.084       .  S
C1005      C1006   1.420       .  A
C1006      C1007   1.509       .  S
C1007      H1011   1.111       .  S
C1007      H1012   1.110       .  S
C1007      H1013   1.110       .  S
C1010      H1014   1.111       .  S
C1010      H1015   1.109       .  S
C1010      H1016   1.111       .  S
C1017      C1018   1.399       .  A
C1017      C1022   1.396       .  A
C1017      H1024   1.085       .  S
C1018      C1019   1.413       .  A
C1019      C1020   1.406       .  A
C1019      C1026   1.506       .  S
C1020      C1021   1.402       .  A
C1020      H1025   1.084       .  S
C1021      C1022   1.409       .  A
C1022      C1023   1.502       .  S
C1023      H1027   1.111       .  S
C1023      H1028   1.110       .  S
C1023      H1029   1.109       .  S
C1026      H1030   1.111       .  S
C1026      H1031   1.110       .  S
C1026      H1032   1.111       .  S
C1033      C1034   1.400       .  A
C1033      C1038   1.407       .  A
C1033      H1040   1.084       .  S
C1034      C1035   1.415   1_565  A
C1035      C1036   1.402       .  A
C1035      C1042   1.509       .  S
C1036      C1037   1.404       .  A
C1036      H1041   1.084       .  S
C1037      C1038   1.423   1_545  A
C1038      C1039   1.508       .  S
C1039      H1043   1.111       .  S
C1039      H1044   1.111       .  S
C1039      H1045   1.109       .  S
C1042      H1046   1.109       .  S
C1042      H1047   1.110       .  S
C1042      H1048   1.111       .  S
C1049      C1050   1.408       .  A
C1049      C1054   1.409       .  A
C1049      H1056   1.084       .  S
C1050      C1051   1.414       .  A
C1051      C1052   1.398       .  A
C1051      C1058   1.510       .  S
C1052      C1053   1.402       .  A
C1052      H1057   1.081       .  S
C1053      C1054   1.409       .  A
C1054      C1055   1.507       .  S
C1055      H1059   1.111       .  S
C1055      H1060   1.109       .  S
C1055      H1061   1.110       .  S
C1058      H1062   1.108       .  S
C1058      H1063   1.110       .  S
C1058      H1064   1.111       .  S
C1065      C1066   1.401       .  A
C1065      C1070   1.402       .  A
C1065      H1072   1.084       .  S
C1066      C1067   1.418       .  A
C1067      C1068   1.408       .  A
C1067      C1074   1.506       .  S
C1068      C1069   1.400       .  A
C1068      H1073   1.084       .  S
C1069      C1070   1.410       .  A
C1070      C1071   1.503       .  S
C1071      H1075   1.111       .  S
C1071      H1076   1.106       .  S
C1071      H1077   1.110       .  S
C1074      H1078   1.106       .  S
C1074      H1079   1.110       .  S
C1074      H1080   1.111       .  S
C1081      C1082   1.402   1_545  A
C1081      C1086   1.402       .  A
C1081      H1088   1.085       .  S
C1082      C1083   1.410       .  A
C1083      C1084   1.406       .  A
C1083      C1090   1.507       .  S
C1084      C1085   1.411   1_565  A
C1084      H1089   1.084       .  S
C1085      C1086   1.421       .  A
C1086      C1087   1.509       .  S
C1087      H1091   1.111       .  S
C1087      H1092   1.110       .  S
C1087      H1093   1.111       .  S
C1090      H1094   1.111       .  S
C1090      H1095   1.110       .  S
C1090      H1096   1.111       .  S
C1097      C1098   1.402       .  A
C1097      C1102   1.399       .  A
C1097      H1104   1.082       .  S
C1098      C1099   1.415       .  A
C1099      C1100   1.406       .  A
C1099      C1106   1.507       .  S
C1100      C1101   1.402       .  A
C1100      H1105   1.084       .  S
C1101      C1102   1.410       .  A
C1102      C1103   1.505       .  S
C1103      H1107   1.111   1_565  S
C1103      H1108   1.110       .  S
C1103      H1109   1.110       .  S
C1106      H1110   1.110       .  S
C1106      H1111   1.111       .  S
C1106      H1112   1.111       .  S
C1113      C1114   1.404       .  A
C1113      C1118   1.399   1_655  A
C1113      H1120   1.056       .  S
C1114      C1115   1.422       .  A
C1115      C1116   1.411   1_655  A
C1115      C1122   1.504       .  S
C1116      C1117   1.402       .  A
C1116      H1121   1.082       .  S
C1117      C1118   1.409       .  A
C1118      C1119   1.507       .  S
C1119      H1123   1.110       .  S
C1119      H1124   1.110       .  S
C1119      H1125   1.110       .  S
C1122      H1126   1.103       .  S
C1122      H1127   1.110       .  S
C1122      H1128   1.108       .  S
C1129      C1130   1.407       .  A
C1129      C1134   1.403       .  A
C1129      H1136   1.084       .  S
C1130      C1131   1.412       .  A
C1131      C1132   1.406       .  A
C1131      C1138   1.508       .  S
C1132      C1133   1.412       .  A
C1132      H1137   1.083       .  S
C1133      C1134   1.421       .  A
C1134      C1135   1.510       .  S
C1135      H1139   1.111       .  S
C1135      H1140   1.110       .  S
C1135      H1141   1.110       .  S
C1138      H1142   1.110       .  S
C1138      H1143   1.111       .  S
C1138      H1144   1.111       .  S
C1145      C1146   1.397       .  A
C1145      C1150   1.398       .  A
C1145      H1152   1.080       .  S
C1146      C1147   1.410       .  A
C1147      C1148   1.405       .  A
C1147      C1154   1.501       .  S
C1148      C1149   1.404       .  A
C1148      H1153   1.084       .  S
C1149      C1150   1.415       .  A
C1150      C1151   1.505       .  S
C1151      H1155   1.111       .  S
C1151      H1156   1.106       .  S
C1151      H1157   1.108       .  S
C1154      H1158   1.110       .  S
C1154      H1159   1.108       .  S
C1154      H1160   1.111       .  S
C1161      C1162   1.403   1_655  A
C1161      C1166   1.399       .  A
C1161      H1168   1.085   1_655  S
C1162      C1163   1.419   1_455  A
C1163      C1164   1.413       .  A
C1163      C1170   1.505       .  S
C1164      C1165   1.404       .  A
C1164      H1169   1.084       .  S
C1165      C1166   1.418       .  A
C1166      C1167   1.509       .  S
C1167      H1171   1.111       .  S
C1167      H1172   1.111       .  S
C1167      H1173   1.109       .  S
C1170      H1174   1.106   1_655  S
C1170      H1175   1.110   1_655  S
C1170      H1176   1.111       .  S
C1177      C1178   1.410       .  A
C1177      C1182   1.409   1_565  A
C1177      H1184   1.083       .  S
C1178      C1179   1.415   1_565  A
C1179      C1180   1.399       .  A
C1179      C1186   1.500   1_545  S
C1180      C1181   1.399       .  A
C1180      H1185   1.085       .  S
C1181      C1182   1.408       .  A
C1182      C1183   1.505       .  S
C1183      H1187   1.111       .  S
C1183      H1188   1.110       .  S
C1183      H1189   1.111       .  S
C1186      H1190   1.111   1_565  S
C1186      H1191   1.109       .  S
C1186      H1192   1.108   1_455  S
C1193      C1194   1.412       .  A
C1193      C1198   1.404   1_655  A
C1193      H1200   1.084   1_655  S
C1194      C1195   1.419       .  A
C1195      C1196   1.407       .  A
C1195      C1202   1.508       .  S
C1196      C1197   1.407       .  A
C1196      H1201   1.084       .  S
C1197      C1198   1.411   1_655  A
C1198      C1199   1.508       .  S
C1199      H1203   1.111       .  S
C1199      H1204   1.110       .  S
C1199      H1205   1.109       .  S
C1202      H1206   1.110       .  S
C1202      H1207   1.111       .  S
C1202      H1208   1.111       .  S
C1209      C1210   1.404       .  A
C1209      C1214   1.398       .  A
C1209      H1216   1.084       .  S
C1210      C1211   1.408       .  A
C1211      C1212   1.410       .  A
C1211      C1218   1.501       .  S
C1212      C1213   1.410       .  A
C1212      H1217   1.084       .  S
C1213      C1214   1.417       .  A
C1214      C1215   1.510   1_545  S
C1215      H1219   1.111       .  S
C1215      H1220   1.108       .  S
C1215      H1221   1.109       .  S
C1218      H1222   1.110       .  S
C1218      H1223   1.104       .  S
C1218      H1224   1.111       .  S
C1225      C1226   1.405       .  A
C1225      C1230   1.407       .  A
C1225      H1232   1.084       .  S
C1226      C1227   1.413       .  A
C1227      C1228   1.397       .  A
C1227      C1234   1.507   1_455  S
C1228      C1229   1.400       .  A
C1228      H1233   1.082       .  S
C1229      C1230   1.410       .  A
C1230      C1231   1.500       .  S
C1231      H1235   1.111       .  S
C1231      H1236   1.102       .  S
C1231      H1237   1.110       .  S
C1234      H1238   1.108       .  S
C1234      H1239   1.108       .  S
C1234      H1240   1.111       .  S
C1241      C1242   1.398       .  A
C1241      C1246   1.399   1_545  A
C1241      H1248   1.081       .  S
C1242      C1243   1.419   1_545  A
C1243      C1244   1.409       .  A
C1243      C1250   1.507   1_565  S
C1244      C1245   1.401       .  A
C1244      H1249   1.084       .  S
C1245      C1246   1.414       .  A
C1246      C1247   1.501       .  S
C1247      H1251   1.111       .  S
C1247      H1252   1.111       .  S
C1247      H1253   1.103       .  S
C1250      H1254   1.110       .  S
C1250      H1255   1.107       .  S
C1250      H1256   1.111   1_545  S
C1257      C1258   1.400       .  A
C1257      C1262   1.398       .  A
C1257      H1264   1.081       .  S
C1258      C1259   1.420       .  A
C1259      C1260   1.414       .  A
C1259      C1266   1.504       .  S
C1260      C1261   1.403       .  A
C1260      H1265   1.083       .  S
C1261      C1262   1.416       .  A
C1262      C1263   1.507       .  S
C1263      H1267   1.110       .  S
C1263      H1268   1.109   1_455  S
C1263      H1269   1.110   1_455  S
C1266      H1270   1.110       .  S
C1266      H1271   1.105       .  S
C1266      H1272   1.111       .  S
C1273      C1274   1.399       .  A
C1273      C1278   1.399       .  A
C1273      H1280   1.084       .  S
C1274      C1275   1.408       .  A
C1275      C1276   1.403       .  A
C1275      C1282   1.504       .  S
C1276      C1277   1.403       .  A
C1276      H1281   1.083       .  S
C1277      C1278   1.416       .  A
C1278      C1279   1.510       .  S
C1279      H1283   1.111       .  S
C1279      H1284   1.108       .  S
C1279      H1285   1.109       .  S
C1282      H1286   1.109       .  S
C1282      H1287   1.111       .  S
C1282      H1288   1.110       .  S
C1289      C1290   1.397       .  A
C1289      C1294   1.396       .  A
C1289      H1296   1.083       .  S
C1290      C1291   1.408       .  A
C1291      C1292   1.411       .  A
C1291      C1298   1.504       .  S
C1292      C1293   1.414       .  A
C1292      H1297   1.084       .  S
C1293      C1294   1.424       .  A
C1294      C1295   1.511       .  S
C1295      H1299   1.111       .  S
C1295      H1300   1.107       .  S
C1295      H1301   1.110       .  S
C1298      H1302   1.110       .  S
C1298      H1303   1.110       .  S
C1298      H1304   1.111       .  S
C1305      C1306   1.404       .  A
C1305      C1310   1.397       .  A
C1305      H1312   1.085       .  S
C1306      C1307   1.413       .  A
C1307      C1308   1.407       .  A
C1307      C1314   1.503       .  S
C1308      C1309   1.403       .  A
C1308      H1313   1.085       .  S
C1309      C1310   1.409       .  A
C1310      C1311   1.509       .  S
C1311      H1315   1.108       .  S
C1311      H1316   1.109       .  S
C1311      H1317   1.110       .  S
C1314      H1318   1.109       .  S
C1314      H1319   1.108       .  S
C1314      H1320   1.110       .  S
C1321      C1322   1.402   1_556  A
C1321      C1326   1.407       .  A
C1321      H1328   1.084       .  S
C1322      C1323   1.415       .  A
C1323      C1324   1.407       .  A
C1323      C1330   1.504       .  S
C1324      C1325   1.402       .  A
C1324      H1329   1.084       .  S
C1325      C1326   1.414   1_554  A
C1326      C1327   1.502       .  S
C1327      H1331   1.106       .  S
C1327      H1332   1.110       .  S
C1327      H1333   1.110       .  S
C1330      H1334   1.110       .  S
C1330      H1335   1.110       .  S
C1330      H1336   1.111       .  S
C1337      C1338   1.405       .  A
C1337      C1342   1.408       .  A
C1337      H1344   1.085       .  S
C1338      C1339   1.412       .  A
C1339      C1340   1.407       .  A
C1339      C1346   1.506       .  S
C1340      C1341   1.405       .  A
C1340      H1345   1.084       .  S
C1341      C1342   1.412       .  A
C1342      C1343   1.506       .  S
C1343      H1347   1.111       .  S
C1343      H1348   1.110       .  S
C1343      H1349   1.110       .  S
C1346      H1350   1.110       .  S
C1346      H1351   1.110       .  S
C1346      H1352   1.111       .  S
C1353      C1354   1.400       .  A
C1353      C1358   1.397       .  A
C1353      H1360   1.085       .  S
C1354      C1355   1.415       .  A
C1355      C1356   1.412       .  A
C1355      C1362   1.504       .  S
C1356      C1357   1.406       .  A
C1356      H1361   1.084       .  S
C1357      C1358   1.419       .  A
C1358      C1359   1.506       .  S
C1359      H1363   1.111       .  S
C1359      H1364   1.111       .  S
C1359      H1365   1.109       .  S
C1362      H1366   1.104       .  S
C1362      H1367   1.110       .  S
C1362      H1368   1.111       .  S
C1369      C1370   1.400       .  A
C1369      C1374   1.399       .  A
C1369      H1376   1.084       .  S
C1370      C1371   1.409       .  A
C1371      C1372   1.402       .  A
C1371      C1378   1.501       .  S
C1372      C1373   1.401       .  A
C1372      H1377   1.084       .  S
C1373      C1374   1.412       .  A
C1374      C1375   1.504       .  S
C1375      H1379   1.111       .  S
C1375      H1380   1.110       .  S
C1375      H1381   1.110       .  S
C1378      H1382   1.110       .  S
C1378      H1383   1.109       .  S
C1378      H1384   1.110       .  S
C1385      C1386   1.408       .  A
C1385      C1390   1.410       .  A
C1385      H1392   1.083       .  S
C1386      C1387   1.415       .  A
C1387      C1388   1.404       .  A
C1387      C1394   1.510       .  S
C1388      C1389   1.407       .  A
C1388      H1393   1.085       .  S
C1389      C1390   1.412       .  A
C1390      C1391   1.503       .  S
C1391      H1395   1.111       .  S
C1391      H1396   1.110       .  S
C1391      H1397   1.107       .  S
C1394      H1398   1.110       .  S
C1394      H1399   1.108       .  S
C1394      H1400   1.111       .  S
C1401      C1402   1.406       .  A
C1401      C1406   1.403       .  A
C1401      H1408   1.085       .  S
C1402      C1403   1.414       .  A
C1403      C1404   1.402       .  A
C1403      C1410   1.509       .  S
C1404      C1405   1.404       .  A
C1404      H1409   1.084       .  S
C1405      C1406   1.412       .  A
C1406      C1407   1.505       .  S
C1407      H1411   1.110       .  S
C1407      H1412   1.106       .  S
C1407      H1413   1.109       .  S
C1410      H1414   1.110       .  S
C1410      H1415   1.109       .  S
C1410      H1416   1.109       .  S
C1417      C1418   1.405       .  A
C1417      C1422   1.409       .  A
C1417      H1424   1.085       .  S
C1418      C1419   1.409       .  A
C1419      C1420   1.402       .  A
C1419      C1426   1.508       .  S
C1420      C1421   1.404       .  A
C1420      H1425   1.083       .  S
C1421      C1422   1.414       .  A
C1422      C1423   1.504       .  S
C1423      H1427   1.110       .  S
C1423      H1428   1.110       .  S
C1423      H1429   1.108       .  S
C1426      H1430   1.110       .  S
C1426      H1431   1.110       .  S
C1426      H1432   1.109       .  S
C1433      C1434   1.400       .  A
C1433      C1438   1.407       .  A
C1433      H1440   1.084       .  S
C1434      C1435   1.412       .  A
C1435      C1436   1.403       .  A
C1435      C1442   1.508       .  S
C1436      C1437   1.402       .  A
C1436      H1441   1.084       .  S
C1437      C1438   1.415       .  A
C1438      C1439   1.506       .  S
C1439      H1443   1.111       .  S
C1439      H1444   1.110   1_565  S
C1439      H1445   1.110       .  S
C1442      H1446   1.111       .  S
C1442      H1447   1.109       .  S
C1442      H1448   1.111       .  S
C1449      C1450   1.408       .  A
C1449      C1454   1.414       .  A
C1449      H1456   1.084       .  S
C1450      C1451   1.412       .  A
C1451      C1452   1.400       .  A
C1451      C1458   1.503   1_554  S
C1452      C1453   1.405       .  A
C1452      H1457   1.085       .  S
C1453      C1454   1.415       .  A
C1454      C1455   1.503       .  S
C1455      H1459   1.111       .  S
C1455      H1460   1.105       .  S
C1455      H1461   1.110       .  S
C1458      H1462   1.110   1_556  S
C1458      H1463   1.107       .  S
C1458      H1464   1.111       .  S
C1465      C1466   1.404       .  A
C1465      C1470   1.399       .  A
C1465      H1472   1.085       .  S
C1466      C1467   1.416       .  A
C1467      C1468   1.407       .  A
C1467      C1474   1.504       .  S
C1468      C1469   1.402       .  A
C1468      H1473   1.083       .  S
C1469      C1470   1.410       .  A
C1470      C1471   1.508       .  S
C1471      H1475   1.110       .  S
C1471      H1476   1.110       .  S
C1471      H1477   1.110       .  S
C1474      H1478   1.106       .  S
C1474      H1479   1.110       .  S
C1474      H1480   1.111       .  S
C1481      C1482   1.402       .  A
C1481      C1486   1.407       .  A
C1481      H1488   1.084       .  S
C1482      C1483   1.411       .  A
C1483      C1484   1.396       .  A
C1483      C1490   1.506       .  S
C1484      C1485   1.400       .  A
C1484      H1489   1.085       .  S
C1485      C1486   1.415       .  A
C1486      C1487   1.505       .  S
C1487      H1491   1.111       .  S
C1487      H1492   1.110       .  S
C1487      H1493   1.106       .  S
C1490      H1494   1.110       .  S
C1490      H1495   1.109       .  S
C1490      H1496   1.111       .  S
C1497      C1498   1.401       .  A
C1497      C1502   1.399   1_554  A
C1497      H1504   1.078   1_554  S
C1498      C1499   1.409       .  A
C1499      C1500   1.405       .  A
C1499      C1506   1.502       .  S
C1500      C1501   1.407       .  A
C1500      H1505   1.083       .  S
C1501      C1502   1.409   1_554  A
C1502      C1503   1.502       .  S
C1503      H1507   1.110       .  S
C1503      H1508   1.109       .  S
C1503      H1509   1.109       .  S
C1506      H1510   1.108       .  S
C1506      H1511   1.110       .  S
C1506      H1512   1.111       .  S
C1513      C1514   1.414       .  A
C1513      C1518   1.404       .  A
C1513      H1520   1.083       .  S
C1514      C1515   1.421       .  A
C1515      C1516   1.405       .  A
C1515      C1522   1.508       .  S
C1516      C1517   1.403       .  A
C1516      H1521   1.085       .  S
C1517      C1518   1.408       .  A
C1518      C1519   1.508       .  S
C1519      H1523   1.111       .  S
C1519      H1524   1.109       .  S
C1519      H1525   1.111       .  S
C1522      H1526   1.110       .  S
C1522      H1527   1.110       .  S
C1522      H1528   1.111       .  S
C1529      C1530   1.404       .  A
C1529      C1534   1.409       .  A
C1529      H1536   1.084       .  S
C1530      C1531   1.414       .  A
C1531      C1532   1.407       .  A
C1531      C1538   1.507       .  S
C1532      C1533   1.403       .  A
C1532      H1537   1.084       .  S
C1533      C1534   1.413       .  A
C1534      C1535   1.506       .  S
C1535      H1539   1.111       .  S
C1535      H1540   1.110       .  S
C1535      H1541   1.110       .  S
C1538      H1542   1.110       .  S
C1538      H1543   1.110       .  S
C1538      H1544   1.111       .  S
C1545      C1546   1.396       .  A
C1545      C1550   1.401       .  A
C1545      H1552   1.085       .  S
C1546      C1547   1.415       .  A
C1547      C1548   1.398       .  A
C1547      C1554   1.508       .  S
C1548      C1549   1.405       .  A
C1548      H1553   1.083       .  S
C1549      C1550   1.426       .  A
C1550      C1551   1.510       .  S
C1551      H1555   1.111       .  S
C1551      H1556   1.110       .  S
C1551      H1557   1.110       .  S
C1554      H1558   1.108       .  S
C1554      H1559   1.109       .  S
C1554      H1560   1.111       .  S
C1561      C1562   1.402       .  A
C1561      C1566   1.403       .  A
C1561      H1568   1.085       .  S
C1562      C1563   1.418       .  A
C1563      C1564   1.405       .  A
C1563      C1570   1.508       .  S
C1564      C1565   1.399       .  A
C1564      H1569   1.084       .  S
C1565      C1566   1.413       .  A
C1566      C1567   1.507       .  S
C1567      H1571   1.109       .  S
C1567      H1572   1.110       .  S
C1567      H1573   1.110       .  S
C1570      H1574   1.109       .  S
C1570      H1575   1.111       .  S
C1570      H1576   1.111       .  S
C1577      C1578   1.409       .  A
C1577      C1582   1.401       .  A
C1577      H1584   1.083       .  S
C1578      C1579   1.415       .  A
C1579      C1580   1.404       .  A
C1579      C1586   1.508       .  S
C1580      C1581   1.411       .  A
C1580      H1585   1.083       .  S
C1581      C1582   1.420       .  A
C1582      C1583   1.511       .  S
C1583      H1587   1.111       .  S
C1583      H1588   1.110       .  S
C1583      H1589   1.110       .  S
C1586      H1590   1.110       .  S
C1586      H1591   1.110       .  S
C1586      H1592   1.111       .  S
C1593      C1594   1.405       .  A
C1593      C1598   1.408       .  A
C1593      H1600   1.083       .  S
C1594      C1595   1.409       .  A
C1595      C1596   1.403       .  A
C1595      C1602   1.507       .  S
C1596      C1597   1.407       .  A
C1596      H1601   1.084       .  S
C1597      C1598   1.411       .  A
C1598      C1599   1.506       .  S
C1599      H1603   1.111       .  S
C1599      H1604   1.110       .  S
C1599      H1605   1.111       .  S
C1602      H1606   1.110       .  S
C1602      H1607   1.109       .  S
C1602      H1608   1.111       .  S
C1609      C1610   1.401       .  A
C1609      C1614   1.402       .  A
C1609      H1616   1.085       .  S
C1610      C1611   1.411       .  A
C1611      C1612   1.413       .  A
C1611      C1618   1.505       .  S
C1612      C1613   1.408       .  A
C1612      H1617   1.084   1_455  S
C1613      C1614   1.418       .  A
C1614      C1615   1.510       .  S
C1615      H1619   1.111       .  S
C1615      H1620   1.110       .  S
C1615      H1621   1.108       .  S
C1618      H1622   1.110       .  S
C1618      H1623   1.111       .  S
C1618      H1624   1.111   1_455  S
C1625      C1626   1.407       .  A
C1625      C1630   1.405       .  A
C1625      H1632   1.084       .  S
C1626      C1627   1.414       .  A
C1627      C1628   1.400       .  A
C1627      C1634   1.509       .  S
C1628      C1629   1.400       .  A
C1628      H1633   1.085       .  S
C1629      C1630   1.408       .  A
C1630      C1631   1.506       .  S
C1631      H1635   1.111       .  S
C1631      H1636   1.111       .  S
C1631      H1637   1.110       .  S
C1634      H1638   1.110       .  S
C1634      H1639   1.110       .  S
C1634      H1640   1.111       .  S
C1641      C1642   1.407       .  A
C1641      C1646   1.409       .  A
C1641      H1648   1.084       .  S
C1642      C1643   1.412       .  A
C1643      C1644   1.398       .  A
C1643      C1650   1.510       .  S
C1644      C1645   1.403       .  A
C1644      H1649   1.081       .  S
C1645      C1646   1.411       .  A
C1646      C1647   1.506       .  S
C1647      H1651   1.111       .  S
C1647      H1652   1.110       .  S
C1647      H1653   1.110       .  S
C1650      H1654   1.110       .  S
C1650      H1655   1.108       .  S
C1650      H1656   1.111       .  S
C1657      C1658   1.402       .  A
C1657      C1662   1.409       .  A
C1657      H1664   1.084       .  S
C1658      C1659   1.412       .  A
C1659      C1660   1.400       .  A
C1659      C1666   1.500       .  S
C1660      C1661   1.398       .  A
C1660      H1665   1.084       .  S
C1661      C1662   1.417       .  A
C1662      C1663   1.505       .  S
C1663      H1667   1.111       .  S
C1663      H1668   1.110       .  S
C1663      H1669   1.105       .  S
C1666      H1670   1.109       .  S
C1666      H1671   1.106       .  S
C1666      H1672   1.111       .  S
C1673      C1674   1.401       .  A
C1673      C1678   1.401       .  A
C1673      H1680   1.084       .  S
C1674      C1675   1.411       .  A
C1675      C1676   1.401       .  A
C1675      C1682   1.508       .  S
C1676      C1677   1.403       .  A
C1676      H1681   1.085       .  S
C1677      C1678   1.410       .  A
C1678      C1679   1.505       .  S
C1679      H1683   1.111       .  S
C1679      H1684   1.110       .  S
C1679      H1685   1.110       .  S
C1682      H1686   1.110       .  S
C1682      H1687   1.111       .  S
C1682      H1688   1.111       .  S
C1689      C1690   1.406       .  A
C1689      C1694   1.403       .  A
C1689      H1696   1.085       .  S
C1690      C1691   1.406       .  A
C1691      C1692   1.403       .  A
C1691      C1698   1.508       .  S
C1692      C1693   1.416       .  A
C1692      H1697   1.083       .  S
C1693      C1694   1.418       .  A
C1694      C1695   1.508       .  S
C1695      H1699   1.111       .  S
C1695      H1700   1.110       .  S
C1695      H1701   1.110       .  S
C1698      H1702   1.111       .  S
C1698      H1703   1.109       .  S
C1698      H1704   1.111       .  S
C1705      C1706   1.403       .  A
C1705      C1710   1.408       .  A
C1705      H1712   1.084       .  S
C1706      C1707   1.415       .  A
C1707      C1708   1.392       .  A
C1707      C1714   1.509       .  S
C1708      C1709   1.399       .  A
C1708      H1713   1.086       .  S
C1709      C1710   1.414       .  A
C1710      C1711   1.505       .  S
C1711      H1715   1.111       .  S
C1711      H1716   1.108       .  S
C1711      H1717   1.110       .  S
C1714      H1718   1.104       .  S
C1714      H1719   1.110       .  S
C1714      H1720   1.111       .  S
C1721      C1722   1.402       .  A
C1721      C1726   1.400       .  A
C1721      H1728   1.085       .  S
C1722      C1723   1.420       .  A
C1723      C1724   1.413       .  A
C1723      C1730   1.507       .  S
C1724      C1725   1.404       .  A
C1724      H1729   1.084       .  S
C1725      C1726   1.417       .  A
C1726      C1727   1.507       .  S
C1727      H1731   1.110       .  S
C1727      H1732   1.108       .  S
C1727      H1733   1.111       .  S
C1730      H1734   1.110       .  S
C1730      H1735   1.108       .  S
C1730      H1736   1.111       .  S
C1737      C1738   1.406       .  A
C1737      C1742   1.408       .  A
C1737      H1744   1.082       .  S
C1738      C1739   1.411       .  A
C1739      C1740   1.401       .  A
C1739      C1746   1.499       .  S
C1740      C1741   1.403       .  A
C1740      H1745   1.085       .  S
C1741      C1742   1.411       .  A
C1742      C1743   1.506       .  S
C1743      H1747   1.110       .  S
C1743      H1748   1.111       .  S
C1743      H1749   1.110       .  S
C1746      H1750   1.109       .  S
C1746      H1751   1.109       .  S
C1746      H1752   1.111       .  S
C1753      C1754   1.404       .  A
C1753      C1758   1.403       .  A
C1753      H1760   1.085       .  S
C1754      C1755   1.405       .  A
C1755      C1756   1.401       .  A
C1755      C1762   1.507       .  S
C1756      C1757   1.412       .  A
C1756      H1761   1.084       .  S
C1757      C1758   1.415       .  A
C1758      C1759   1.508       .  S
C1759      H1763   1.111       .  S
C1759      H1764   1.111       .  S
C1759      H1765   1.110       .  S
C1762      H1766   1.110       .  S
C1762      H1767   1.111       .  S
C1762      H1768   1.111       .  S
C1769      C1770   1.407       .  A
C1769      C1774   1.410       .  A
C1769      H1776   1.083       .  S
C1770      C1771   1.412       .  A
C1771      C1772   1.403       .  A
C1771      C1778   1.504       .  S
C1772      C1773   1.405       .  A
C1772      H1777   1.084       .  S
C1773      C1774   1.414       .  A
C1774      C1775   1.505       .  S
C1775      H1779   1.111       .  S
C1775      H1780   1.110       .  S
C1775      H1781   1.110       .  S
C1778      H1782   1.110       .  S
C1778      H1783   1.105       .  S
C1778      H1784   1.111       .  S
C1785      C1786   1.400       .  A
C1785      C1790   1.399       .  A
C1785      H1792   1.084       .  S
C1786      C1787   1.412       .  A
C1787      C1788   1.402       .  A
C1787      C1794   1.503       .  S
C1788      C1789   1.400       .  A
C1788      H1793   1.083       .  S
C1789      C1790   1.410       .  A
C1790      C1791   1.502       .  S
C1791      H1795   1.111       .  S
C1791      H1796   1.109       .  S
C1791      H1797   1.110       .  S
C1794      H1798   1.109       .  S
C1794      H1799   1.110       .  S
C1794      H1800   1.111       .  S
C1801      C1802   1.404       .  A
C1801      C1806   1.400       .  A
C1801      H1808   1.084       .  S
C1802      C1803   1.410       .  A
C1803      C1804   1.405       .  A
C1803      C1810   1.502       .  S
C1804      C1805   1.404       .  A
C1804      H1809   1.084       .  S
C1805      C1806   1.412       .  A
C1806      C1807   1.509       .  S
C1807      H1811   1.111       .  S
C1807      H1812   1.109       .  S
C1807      H1813   1.110       .  S
C1810      H1814   1.108       .  S
C1810      H1815   1.110       .  S
C1810      H1816   1.111       .  S
C1817      C1818   1.401       .  A
C1817      C1822   1.398       .  A
C1817      H1824   1.082       .  S
C1818      C1819   1.409       .  A
C1819      C1820   1.408       .  A
C1819      C1826   1.503       .  S
C1820      C1821   1.408       .  A
C1820      H1825   1.084       .  S
C1821      C1822   1.412       .  A
C1822      C1823   1.507       .  S
C1823      H1827   1.111       .  S
C1823      H1828   1.109       .  S
C1823      H1829   1.111       .  S
C1826      H1830   1.110       .  S
C1826      H1831   1.105       .  S
C1826      H1832   1.111       .  S
C1833      C1834   1.402       .  A
C1833      C1838   1.404       .  A
C1833      H1840   1.084       .  S
C1834      C1835   1.413       .  A
C1835      C1836   1.406       .  A
C1835      C1842   1.505       .  S
C1836      C1837   1.402       .  A
C1836      H1841   1.084       .  S
C1837      C1838   1.413       .  A
C1838      C1839   1.503       .  S
C1839      H1843   1.111       .  S
C1839      H1844   1.105       .  S
C1839      H1845   1.110       .  S
C1842      H1846   1.106       .  S
C1842      H1847   1.110       .  S
C1842      H1848   1.111       .  S
C1849      C1850   1.401       .  A
C1849      C1854   1.404       .  A
C1849      H1856   1.084       .  S
C1850      C1851   1.409       .  A
C1851      C1852   1.407       .  A
C1851      C1858   1.505       .  S
C1852      C1853   1.405       .  A
C1852      H1857   1.085       .  S
C1853      C1854   1.417       .  A
C1854      C1855   1.508       .  S
C1855      H1859   1.111       .  S
C1855      H1860   1.110       .  S
C1855      H1861   1.108       .  S
C1858      H1862   1.110       .  S
C1858      H1863   1.110       .  S
C1858      H1864   1.111       .  S
C1865      C1866   1.401       .  A
C1865      C1870   1.398       .  A
C1865      H1872   1.082       .  S
C1866      C1867   1.406       .  A
C1867      C1868   1.405       .  A
C1867      C1874   1.505       .  S
C1868      C1869   1.408       .  A
C1868      H1873   1.084       .  S
C1869      C1870   1.415       .  A
C1870      C1871   1.509       .  S
C1871      H1875   1.111       .  S
C1871      H1876   1.110       .  S
C1871      H1877   1.109       .  S
C1874      H1878   1.110       .  S
C1874      H1879   1.107       .  S
C1874      H1880   1.111       .  S
C1881      C1882   1.407       .  A
C1881      C1886   1.411       .  A
C1881      H1888   1.084       .  S
C1882      C1883   1.419       .  A
C1883      C1884   1.404   1_655  A
C1883      C1890   1.510       .  S
C1884      C1885   1.401       .  A
C1884      H1889   1.085       .  S
C1885      C1886   1.411   1_455  A
C1886      C1887   1.505       .  S
C1887      H1891   1.111       .  S
C1887      H1892   1.111       .  S
C1887      H1893   1.110   1_655  S
C1890      H1894   1.108       .  S
C1890      H1895   1.110       .  S
C1890      H1896   1.111       .  S
C1897      C1898   1.399       .  A
C1897      C1902   1.402       .  A
C1897      H1904   1.084       .  S
C1898      C1899   1.415       .  A
C1899      C1900   1.409       .  A
C1899      C1906   1.504       .  S
C1900      C1901   1.402       .  A
C1900      H1905   1.084       .  S
C1901      C1902   1.412       .  A
C1902      C1903   1.500   1_556  S
C1903      H1907   1.111       .  S
C1903      H1908   1.102   1_554  S
C1903      H1909   1.110       .  S
C1906      H1910   1.105       .  S
C1906      H1911   1.110       .  S
C1906      H1912   1.111       .  S
C1913      C1914   1.400       .  A
C1913      C1918   1.397       .  A
C1913      H1920   1.080       .  S
C1914      C1915   1.411       .  A
C1915      C1916   1.410       .  A
C1915      C1922   1.507       .  S
C1916      C1917   1.406       .  A
C1916      H1921   1.084       .  S
C1917      C1918   1.411       .  A
C1918      C1919   1.506       .  S
C1919      H1923   1.111       .  S
C1919      H1924   1.109       .  S
C1919      H1925   1.109       .  S
C1922      H1926   1.109       .  S
C1922      H1927   1.110       .  S
C1922      H1928   1.111       .  S
C1929      C1930   1.403       .  A
C1929      C1934   1.406       .  A
C1929      H1936   1.084       .  S
C1930      C1931   1.411       .  A
C1931      C1932   1.406       .  A
C1931      C1938   1.506       .  S
C1932      C1933   1.404       .  A
C1932      H1937   1.084       .  S
C1933      C1934   1.412       .  A
C1934      C1935   1.507       .  S
C1935      H1939   1.111       .  S
C1935      H1940   1.110       .  S
C1935      H1941   1.109       .  S
C1938      H1942   1.110       .  S
C1938      H1943   1.110       .  S
C1938      H1944   1.111       .  S
C1945      C1946   1.410       .  A
C1945      C1950   1.409       .  A
C1945      H1952   1.084       .  S
C1946      C1947   1.414       .  A
C1947      C1948   1.404       .  A
C1947      C1954   1.509       .  S
C1948      C1949   1.406       .  A
C1948      H1953   1.085       .  S
C1949      C1950   1.409       .  A
C1950      C1951   1.506       .  S
C1951      H1955   1.111       .  S
C1951      H1956   1.111       .  S
C1951      H1957   1.110       .  S
C1954      H1958   1.109       .  S
C1954      H1959   1.110       .  S
C1954      H1960   1.111       .  S
C1961      C1962   1.401       .  A
C1961      C1966   1.396       .  A
C1961      H1968   1.085       .  S
C1962      C1963   1.411       .  A
C1963      C1964   1.403       .  A
C1963      C1970   1.506       .  S
C1964      C1965   1.406       .  A
C1964      H1969   1.085       .  S
C1965      C1966   1.415       .  A
C1966      C1967   1.508       .  S
C1967      H1971   1.111       .  S
C1967      H1972   1.105       .  S
C1967      H1973   1.108       .  S
C1970      H1974   1.110       .  S
C1970      H1975   1.107       .  S
C1970      H1976   1.109       .  S
C1977      C1978   1.405       .  A
C1977      C1982   1.408   1_545  A
C1977      H1984   1.084       .  S
C1978      C1979   1.417       .  A
C1979      C1980   1.406   1_545  A
C1979      C1986   1.508       .  S
C1980      C1981   1.401       .  A
C1980      H1985   1.085       .  S
C1981      C1982   1.412       .  A
C1982      C1983   1.506       .  S
C1983      H1987   1.111   1_565  S
C1983      H1988   1.110       .  S
C1983      H1989   1.110       .  S
C1986      H1990   1.109       .  S
C1986      H1991   1.110       .  S
C1986      H1992   1.111   1_545  S
C1993      C1994   1.404       .  A
C1993      C1998   1.406       .  A
C1993      H2000   1.073       .  S
C1994      C1995   1.410       .  A
C1995      C1996   1.402       .  A
C1995      C2002   1.501       .  S
C1996      C1997   1.402       .  A
C1996      H2001   1.084       .  S
C1997      C1998   1.409       .  A
C1998      C1999   1.507       .  S
C1999      H2003   1.110       .  S
C1999      H2004   1.110       .  S
C1999      H2005   1.110       .  S
C2002      H2006   1.107       .  S
C2002      H2007   1.109       .  S
C2002      H2008   1.110       .  S
C2009      C2010   1.399       .  A
C2009      C2014   1.406       .  A
C2009      H2016   1.084       .  S
C2010      C2011   1.411       .  A
C2011      C2012   1.399       .  A
C2011      C2018   1.505       .  S
C2012      C2013   1.402       .  A
C2012      H2017   1.085       .  S
C2013      C2014   1.420       .  A
C2014      C2015   1.508       .  S
C2015      H2019   1.111       .  S
C2015      H2020   1.110       .  S
C2015      H2021   1.111       .  S
C2018      H2022   1.109       .  S
C2018      H2023   1.109       .  S
C2018      H2024   1.108       .  S
C2025      C2026   1.403       .  A
C2025      C2030   1.409       .  A
C2025      H2032   1.084       .  S
C2026      C2027   1.415       .  A
C2027      C2028   1.400       .  A
C2027      C2034   1.502       .  S
C2028      C2029   1.397       .  A
C2028      H2033   1.085       .  S
C2029      C2030   1.415       .  A
C2030      C2031   1.506       .  S
C2031      H2035   1.111       .  S
C2031      H2036   1.110       .  S
C2031      H2037   1.107       .  S
C2034      H2038   1.110       .  S
C2034      H2039   1.108       .  S
C2034      H2040   1.111       .  S
C2041      C2042   1.404       .  A
C2041      C2046   1.406       .  A
C2041      H2048   1.084       .  S
C2042      C2043   1.413       .  A
C2043      C2044   1.405       .  A
C2043      C2050   1.508       .  S
C2044      C2045   1.404       .  A
C2044      H2049   1.084       .  S
C2045      C2046   1.414       .  A
C2046      C2047   1.507       .  S
C2047      H2051   1.111       .  S
C2047      H2052   1.110       .  S
C2047      H2053   1.109       .  S
C2050      H2054   1.110       .  S
C2050      H2055   1.109       .  S
C2050      H2056   1.111       .  S
C2057      C2058   1.406       .  A
C2057      C2062   1.408       .  A
C2057      H2064   1.084       .  S
C2058      C2059   1.414       .  A
C2059      C2060   1.399       .  A
C2059      C2066   1.508       .  S
C2060      C2061   1.401       .  A
C2060      H2065   1.084       .  S
C2061      C2062   1.410       .  A
C2062      C2063   1.504       .  S
C2063      H2067   1.111       .  S
C2063      H2068   1.110       .  S
C2063      H2069   1.110       .  S
C2066      H2070   1.108       .  S
C2066      H2071   1.109       .  S
C2066      H2072   1.110       .  S
C2073      C2074   1.399       .  A
C2073      C2078   1.399       .  A
C2073      H2080   1.085       .  S
C2074      C2075   1.411       .  A
C2075      C2076   1.402       .  A
C2075      C2082   1.501       .  S
C2076      C2077   1.401       .  A
C2076      H2081   1.083       .  S
C2077      C2078   1.410       .  A
C2078      C2079   1.500       .  S
C2079      H2083   1.110       .  S
C2079      H2084   1.109       .  S
C2079      H2085   1.109       .  S
C2082      H2086   1.109       .  S
C2082      H2087   1.110       .  S
C2082      H2088   1.111       .  S
C2089      C2090   1.408       .  A
C2089      C2094   1.409       .  A
C2089      H2096   1.084       .  S
C2090      C2091   1.414       .  A
C2091      C2092   1.404       .  A
C2091      C2098   1.504       .  S
C2092      C2093   1.404       .  A
C2092      H2097   1.085       .  S
C2093      C2094   1.413       .  A
C2094      C2095   1.507       .  S
C2095      H2099   1.111       .  S
C2095      H2100   1.110       .  S
C2095      H2101   1.111       .  S
C2098      H2102   1.110   1_556  S
C2098      H2103   1.107       .  S
C2098      H2104   1.111   1_556  S
C2105      C2106   1.398       .  A
C2105      C2110   1.400       .  A
C2105      H2112   1.083       .  S
C2106      C2107   1.408       .  A
C2107      C2108   1.410       .  A
C2107      C2114   1.502       .  S
C2108      C2109   1.410       .  A
C2108      H2113   1.083       .  S
C2109      C2110   1.414       .  A
C2110      C2111   1.496   1_556  S
C2111      H2115   1.111       .  S
C2111      H2116   1.110       .  S
C2111      H2117   1.109   1_554  S
C2114      H2118   1.110       .  S
C2114      H2119   1.103       .  S
C2114      H2120   1.111       .  S
C2121      C2122   1.407       .  A
C2121      C2126   1.409       .  A
C2121      H2128   1.084       .  S
C2122      C2123   1.415       .  A
C2123      C2124   1.406       .  A
C2123      C2130   1.507       .  S
C2124      C2125   1.402       .  A
C2124      H2129   1.083       .  S
C2125      C2126   1.411       .  A
C2126      C2127   1.506       .  S
C2127      H2131   1.111       .  S
C2127      H2132   1.110       .  S
C2127      H2133   1.110       .  S
C2130      H2134   1.110       .  S
C2130      H2135   1.109       .  S
C2130      H2136   1.110       .  S
C2137      C2138   1.412       .  A
C2137      C2142   1.403       .  A
C2137      H2144   1.084       .  S
C2138      C2139   1.418       .  A
C2139      C2140   1.402       .  A
C2139      C2146   1.509       .  S
C2140      C2141   1.407       .  A
C2140      H2145   1.084       .  S
C2141      C2142   1.412       .  A
C2142      C2143   1.508       .  S
C2143      H2147   1.111       .  S
C2143      H2148   1.109       .  S
C2143      H2149   1.110       .  S
C2146      H2150   1.110       .  S
C2146      H2151   1.110       .  S
C2146      H2152   1.111       .  S
C2153      C2154   1.405       .  A
C2153      C2158   1.404   1_655  A
C2153      H2160   1.084       .  S
C2154      C2155   1.419       .  A
C2155      C2156   1.413       .  A
C2155      C2162   1.507       .  S
C2156      C2157   1.404   1_655  A
C2156      H2161   1.084       .  S
C2157      C2158   1.412       .  A
C2158      C2159   1.508       .  S
C2159      H2163   1.111       .  S
C2159      H2164   1.109       .  S
C2159      H2165   1.111       .  S
C2162      H2166   1.109       .  S
C2162      H2167   1.110       .  S
C2162      H2168   1.111       .  S
C2169      C2170   1.412       .  A
C2169      C2174   1.404       .  A
C2169      H2176   1.084       .  S
C2170      C2171   1.418       .  A
C2171      C2172   1.404       .  A
C2171      C2178   1.508       .  S
C2172      C2173   1.403       .  A
C2172      H2177   1.085       .  S
C2173      C2174   1.408       .  A
C2174      C2175   1.507       .  S
C2175      H2179   1.111       .  S
C2175      H2180   1.110       .  S
C2175      H2181   1.109       .  S
C2178      H2182   1.110       .  S
C2178      H2183   1.111       .  S
C2178      H2184   1.111       .  S
C2185      C2186   1.403       .  A
C2185      C2190   1.404       .  A
C2185      H2192   1.084       .  S
C2186      C2187   1.415       .  A
C2187      C2188   1.408       .  A
C2187      C2194   1.506       .  S
C2188      C2189   1.402       .  A
C2188      H2193   1.084       .  S
C2189      C2190   1.412       .  A
C2190      C2191   1.508       .  S
C2191      H2195   1.111       .  S
C2191      H2196   1.110       .  S
C2191      H2197   1.108       .  S
C2194      H2198   1.110   1_545  S
C2194      H2199   1.106       .  S
C2194      H2200   1.111       .  S
C2201      C2202   1.413       .  A
C2201      C2206   1.404       .  A
C2201      H2208   1.083       .  S
C2202      C2203   1.419       .  A
C2203      C2204   1.401       .  A
C2203      C2210   1.509       .  S
C2204      C2205   1.405       .  A
C2204      H2209   1.085       .  S
C2205      C2206   1.410       .  A
C2206      C2207   1.508       .  S
C2207      H2211   1.111       .  S
C2207      H2212   1.109       .  S
C2207      H2213   1.110       .  S
C2210      H2214   1.110       .  S
C2210      H2215   1.110       .  S
C2210      H2216   1.111       .  S
C2217      C2218   1.410       .  A
C2217      C2222   1.413       .  A
C2217      H2224   1.083       .  S
C2218      C2219   1.412       .  A
C2219      C2220   1.398       .  A
C2219      C2226   1.498       .  S
C2220      C2221   1.401       .  A
C2220      H2225   1.085       .  S
C2221      C2222   1.411       .  A
C2222      C2223   1.502       .  S
C2223      H2227   1.111       .  S
C2223      H2228   1.110       .  S
C2223      H2229   1.105       .  S
C2226      H2230   1.107       .  S
C2226      H2231   1.111       .  S
C2226      H2232   1.111       .  S
C2233      C2234   1.406       .  A
C2233      C2238   1.405       .  A
C2233      H2240   1.084       .  S
C2234      C2235   1.414       .  A
C2235      C2236   1.400       .  A
C2235      C2242   1.509       .  S
C2236      C2237   1.403       .  A
C2236      H2241   1.082       .  S
C2237      C2238   1.409       .  A
C2238      C2239   1.503       .  S
C2239      H2243   1.110       .  S
C2239      H2244   1.109       .  S
C2239      H2245   1.109       .  S
C2242      H2246   1.110       .  S
C2242      H2247   1.108       .  S
C2242      H2248   1.111       .  S
C2249      C2250   1.403       .  A
C2249      C2254   1.405       .  A
C2249      H2256   1.084       .  S
C2250      C2251   1.414       .  A
C2251      C2252   1.411       .  A
C2251      C2258   1.506       .  S
C2252      C2253   1.404       .  A
C2252      H2257   1.084       .  S
C2253      C2254   1.412       .  A
C2254      C2255   1.507       .  S
C2255      H2259   1.111       .  S
C2255      H2260   1.110       .  S
C2255      H2261   1.110       .  S
C2258      H2262   1.110       .  S
C2258      H2263   1.110       .  S
C2258      H2264   1.111       .  S
C2265      C2266   1.406       .  A
C2265      C2270   1.409       .  A
C2265      H2272   1.084       .  S
C2266      C2267   1.416       .  A
C2267      C2268   1.406       .  A
C2267      C2274   1.508       .  S
C2268      C2269   1.402       .  A
C2268      H2273   1.085       .  S
C2269      C2270   1.411       .  A
C2270      C2271   1.506       .  S
C2271      H2275   1.111       .  S
C2271      H2276   1.110       .  S
C2271      H2277   1.110       .  S
C2274      H2278   1.109       .  S
C2274      H2279   1.110       .  S
C2274      H2280   1.111       .  S
C2281      C2282   1.403       .  A
C2281      C2286   1.400       .  A
C2281      H2288   1.085       .  S
C2282      C2283   1.405       .  A
C2283      C2284   1.402       .  A
C2283      C2290   1.507       .  S
C2284      C2285   1.415       .  A
C2284      H2289   1.083       .  S
C2285      C2286   1.419       .  A
C2286      C2287   1.509       .  S
C2287      H2291   1.111       .  S
C2287      H2292   1.110       .  S
C2287      H2293   1.110       .  S
C2290      H2294   1.111       .  S
C2290      H2295   1.110       .  S
C2290      H2296   1.111       .  S
C2297      C2298   1.402       .  A
C2297      C2302   1.407       .  A
C2297      H2304   1.084       .  S
C2298      C2299   1.410       .  A
C2299      C2300   1.394       .  A
C2299      C2306   1.500       .  S
C2300      C2301   1.397       .  A
C2300      H2305   1.084       .  S
C2301      C2302   1.414       .  A
C2302      C2303   1.503       .  S
C2303      H2307   1.111       .  S
C2303      H2308   1.108       .  S
C2303      H2309   1.110       .  S
C2306      H2310   1.109       .  S
C2306      H2311   1.110       .  S
C2306      H2312   1.111       .  S
C2313      C2314   1.402       .  A
C2313      C2318   1.399       .  A
C2313      H2320   1.085       .  S
C2314      C2315   1.419       .  A
C2315      C2316   1.405       .  A
C2315      C2322   1.508       .  S
C2316      C2317   1.399       .  A
C2316      H2321   1.083       .  S
C2317      C2318   1.413       .  A
C2318      C2319   1.508       .  S
C2319      H2323   1.111       .  S
C2319      H2324   1.109       .  S
C2319      H2325   1.109       .  S
C2322      H2326   1.110       .  S
C2322      H2327   1.111       .  S
C2322      H2328   1.111       .  S
C2329      C2330   1.404       .  A
C2329      C2334   1.412       .  A
C2329      H2336   1.084       .  S
C2330      C2331   1.414       .  A
C2331      C2332   1.401       .  A
C2331      C2338   1.499       .  S
C2332      C2333   1.396       .  A
C2332      H2337   1.085       .  S
C2333      C2334   1.415       .  A
C2334      C2335   1.505       .  S
C2335      H2339   1.111       .  S
C2335      H2340   1.110       .  S
C2335      H2341   1.107       .  S
C2338      H2342   1.111       .  S
C2338      H2343   1.107       .  S
C2338      H2344   1.111       .  S
C2345      C2346   1.411       .  A
C2345      C2350   1.405       .  A
C2345      H2352   1.083       .  S
C2346      C2347   1.418       .  A
C2347      C2348   1.403       .  A
C2347      C2354   1.510       .  S
C2348      C2349   1.409       .  A
C2348      H2353   1.084       .  S
C2349      C2350   1.414       .  A
C2350      C2351   1.508       .  S
C2351      H2355   1.111       .  S
C2351      H2356   1.109       .  S
C2351      H2357   1.111       .  S
C2354      H2358   1.110       .  S
C2354      H2359   1.110       .  S
C2354      H2360   1.111       .  S
C2361      C2362   1.405       .  A
C2361      C2366   1.406       .  A
C2361      H2368   1.085       .  S
C2362      C2363   1.413       .  A
C2363      C2364   1.398       .  A
C2363      C2370   1.509       .  S
C2364      C2365   1.401       .  A
C2364      H2369   1.081       .  S
C2365      C2366   1.413       .  A
C2366      C2367   1.506       .  S
C2367      H2371   1.110       .  S
C2367      H2372   1.110       .  S
C2367      H2373   1.108       .  S
C2370      H2374   1.111       .  S
C2370      H2375   1.109       .  S
C2370      H2376   1.110       .  S
C2377      C2378   1.409       .  A
C2377      C2382   1.410       .  A
C2377      H2384   1.084       .  S
C2378      C2379   1.416       .  A
C2379      C2380   1.401       .  A
C2379      C2386   1.510       .  S
C2380      C2381   1.405       .  A
C2380      H2385   1.085       .  S
C2381      C2382   1.412       .  A
C2382      C2383   1.506       .  S
C2383      H2387   1.111       .  S
C2383      H2388   1.111       .  S
C2383      H2389   1.110       .  S
C2386      H2390   1.108       .  S
C2386      H2391   1.110       .  S
C2386      H2392   1.111       .  S
C2393      C2394   1.401       .  A
C2393      C2398   1.402       .  A
C2393      H2400   1.085       .  S
C2394      C2395   1.410       .  A
C2395      C2396   1.410       .  A
C2395      C2402   1.505       .  S
C2396      C2397   1.406       .  A
C2396      H2401   1.080       .  S
C2397      C2398   1.412       .  A
C2398      C2399   1.498       .  S
C2399      H2403   1.110       .  S
C2399      H2404   1.107       .  S
C2399      H2405   1.109       .  S
C2402      H2406   1.111       .  S
C2402      H2407   1.110       .  S
C2402      H2408   1.110       .  S
C2409      C2410   1.404       .  A
C2409      C2414   1.407       .  A
C2409      H2416   1.084       .  S
C2410      C2411   1.414       .  A
C2411      C2412   1.409       .  A
C2411      C2418   1.507       .  S
C2412      C2413   1.404       .  A
C2412      H2417   1.084       .  S
C2413      C2414   1.412       .  A
C2414      C2415   1.505       .  S
C2415      H2419   1.111       .  S
C2415      H2420   1.110       .  S
C2415      H2421   1.107       .  S
C2418      H2422   1.110       .  S
C2418      H2423   1.108       .  S
C2418      H2424   1.111       .  S
C2425      C2426   1.403       .  A
C2425      C2430   1.404       .  A
C2425      H2432   1.084       .  S
C2426      C2427   1.422       .  A
C2427      C2428   1.405       .  A
C2427      C2434   1.509       .  S
C2428      C2429   1.400       .  A
C2428      H2433   1.084       .  S
C2429      C2430   1.419       .  A
C2430      C2431   1.510       .  S
C2431      H2435   1.111       .  S
C2431      H2436   1.109       .  S
C2431      H2437   1.111       .  S
C2434      H2438   1.111       .  S
C2434      H2439   1.109       .  S
C2434      H2440   1.111       .  S
C2441      C2442   1.398       .  A
C2441      C2446   1.403       .  A
C2441      H2448   1.085       .  S
C2442      C2443   1.418       .  A
C2443      C2444   1.409       .  A
C2443      C2450   1.503       .  S
C2444      C2445   1.401       .  A
C2444      H2449   1.084       .  S
C2445      C2446   1.414       .  A
C2446      C2447   1.498       .  S
C2447      H2451   1.110       .  S
C2447      H2452   1.104       .  S
C2447      H2453   1.110       .  S
C2450      H2454   1.109       .  S
C2450      H2455   1.110       .  S
C2450      H2456   1.108       .  S
C2457      C2458   1.406       .  A
C2457      C2462   1.406       .  A
C2457      H2464   1.084       .  S
C2458      C2459   1.415       .  A
C2459      C2460   1.397       .  A
C2459      C2466   1.509       .  S
C2460      C2461   1.402       .  A
C2460      H2465   1.085       .  S
C2461      C2462   1.411       .  A
C2462      C2463   1.504       .  S
C2463      H2467   1.110       .  S
C2463      H2468   1.107       .  S
C2463      H2469   1.110       .  S
C2466      H2470   1.107       .  S
C2466      H2471   1.109       .  S
C2466      H2472   1.111       .  S
C2473      C2474   1.406       .  A
C2473      C2478   1.408       .  A
C2473      H2480   1.085       .  S
C2474      C2475   1.413       .  A
C2475      C2476   1.392       .  A
C2475      C2482   1.509       .  S
C2476      C2477   1.396       .  A
C2476      H2481   1.085       .  S
C2477      C2478   1.410       .  A
C2478      C2479   1.506       .  S
C2479      H2483   1.111       .  S
C2479      H2484   1.108       .  S
C2479      H2485   1.110       .  S
C2482      H2486   1.111       .  S
C2482      H2487   1.107       .  S
C2482      H2488   1.111       .  S
C2489      C2490   1.406       .  A
C2489      C2494   1.409       .  A
C2489      H2496   1.083       .  S
C2490      C2491   1.420       .  A
C2491      C2492   1.402       .  A
C2491      C2498   1.510       .  S
C2492      C2493   1.402       .  A
C2492      H2497   1.085       .  S
C2493      C2494   1.416       .  A
C2494      C2495   1.506       .  S
C2495      H2499   1.111       .  S
C2495      H2500   1.106       .  S
C2495      H2501   1.110       .  S
C2498      H2502   1.108       .  S
C2498      H2503   1.110       .  S
C2498      H2504   1.111       .  S
C2505      C2506   1.407       .  A
C2505      C2510   1.409   1_565  A
C2505      H2512   1.084       .  S
C2506      C2507   1.417   1_565  A
C2507      C2508   1.405       .  A
C2507      C2514   1.509   1_545  S
C2508      C2509   1.402       .  A
C2508      H2513   1.084       .  S
C2509      C2510   1.410       .  A
C2510      C2511   1.505       .  S
C2511      H2515   1.111   1_545  S
C2511      H2516   1.110       .  S
C2511      H2517   1.110       .  S
C2514      H2518   1.110       .  S
C2514      H2519   1.109       .  S
C2514      H2520   1.111   1_565  S
