geometry optimzed in LAMMPS
_audit_creation_date              2020-11-30 
_audit_creation_method            'lammps2cif' 
_symmetry_space_group_name_H-M    'P1' 
_symmetry_Int_Tables_number       1 
_symmetry_cell_setting            triclinic 
loop_ 
_symmetry_equiv_pos_as_xyz 
  x,y,z 
_cell_length_a                    54.12633163 
_cell_length_b                    54.084418581051935 
_cell_length_c                    56.94799814060959 
_cell_angle_alpha                 90.07740518520703 
_cell_angle_beta                  89.90002341872137 
_cell_angle_gamma                 121.7786443949897 
loop_ 
_atom_site_label 
_atom_site_type_symbol 
_atom_site_fract_x 
_atom_site_fract_y 
_atom_site_fract_z 
_atom_site_charge 
O1          O  0.29210683  0.49326108  0.63268424    -0.81700
C2          C  0.39558142  0.52733525  0.58107901     0.97700
O3          O  0.37997884  0.53825242  0.58000250    -0.70800
O4          O  0.32498424  0.49930107  0.56996623    -0.74400
Al5        Al  0.34364387  0.52797057  0.59393886     1.49000
C6          C  0.30014099  0.47645480  0.57215854     0.92900
O7          O  0.32123485  0.44513102  0.61356682    -0.80600
O8          O  0.36262622  0.50968385  0.65813393    -0.74200
Al9        Al  0.30883787  0.47119682  0.62263201     1.90100
O10         O  0.36442371  0.46996802  0.62961043    -0.73200
O11         O  0.39480617  0.55136958  0.62852387    -0.73100
O12         O  0.39276863  0.51067006  0.59772127    -0.78700
O13         O  0.36161604  0.55928573  0.61556072    -0.76900
O14         O  0.34269973  0.50284715  0.61457031    -1.13100
O15         O  0.30797364  0.52363712  0.60310115    -0.72300
C16         C  0.29076056  0.51173472  0.62007972     0.98500
C17         C  0.34390640  0.44653869  0.62108562     0.94800
Al18       Al  0.37578034  0.50972840  0.62740499     1.55600
O19         O  0.29139646  0.46508653  0.59219656    -0.76900
C20         C  0.38508843  0.56796248  0.62636932     0.99000
C21         C  0.33954488  0.48975188  0.66751674     0.93900
O22         O  0.31888241  0.47093487  0.65497078    -0.82200
O23         O  0.20390377  0.70829621  0.63681232    -0.81700
C24         C  0.13999884  0.61210942  0.57598561     0.97700
O25         O  0.16718297  0.62849145  0.57751823    -0.70800
O26         O  0.18280942  0.68267644  0.57132312    -0.74400
Al27       Al  0.19188728  0.66317666  0.59424458     1.49000
C28         C  0.18510131  0.70679377  0.57493486     0.92900
O29         O  0.12746356  0.67815250  0.61237744    -0.80600
O30         O  0.14808910  0.63504001  0.65608708    -0.74200
Al31       Al  0.16573792  0.69157532  0.62394597     1.90100
O32         O  0.10757149  0.63370337  0.62594090    -0.73200
O33         O  0.16096434  0.60786892  0.62432117    -0.73100
O34         O  0.12387165  0.61081568  0.59266844    -0.78700
O35         O  0.20417595  0.64405142  0.61479348    -0.76900
O36         O  0.16495035  0.65984109  0.61401749    -1.13100
O37         O  0.22270436  0.69872951  0.60652576    -0.72300
C38         C  0.22567743  0.71239566  0.62526561     0.98500
C39         C  0.10509932  0.65423415  0.61824907     0.94800
Al40       Al  0.13734521  0.62476816  0.62398762     1.55600
O41         O  0.18115797  0.71347866  0.59529131    -0.76900
C42         C  0.18807604  0.61870643  0.62284825     0.99000
C43         C  0.14944694  0.65639062  0.66646501     0.93900
O44         O  0.15130090  0.67720187  0.65485845    -0.82200
O45         O  0.51015142  0.80203185  0.63546534    -0.81700
C46         C  0.48410842  0.87218834  0.57951224     0.97700
O47         O  0.47148004  0.84485498  0.57923490    -0.70800
O48         O  0.51001848  0.83026001  0.57170019    -0.74400
Al49       Al  0.48025875  0.81876088  0.59418679     1.49000
C50         C  0.53155809  0.82749228  0.57454275     0.92900
O51         O  0.56226354  0.88031101  0.61599402    -0.80600
O52         O  0.49641868  0.85866034  0.65791351    -0.74200
Al53       Al  0.53449074  0.84131835  0.62512443     1.90100
O54         O  0.53872764  0.90008450  0.62985101    -0.73200
O55         O  0.45683885  0.84717752  0.62615412    -0.73100
O56         O  0.50051691  0.88677286  0.59628456    -0.78700
O57         O  0.44833887  0.80476621  0.61469218    -0.76900
O58         O  0.50457411  0.84373363  0.61536981    -1.13100
O59         O  0.48298217  0.78659935  0.60396659    -0.72300
C60         C  0.49252574  0.78147514  0.62231318     0.98500
C61         C  0.56180336  0.90246582  0.62224144     0.94800
Al62       Al  0.49867423  0.87093918  0.62662625     1.55600
O63         O  0.54142733  0.82900778  0.59503902    -0.76900
C64         C  0.43966240  0.81998680  0.62407920     0.99000
C65         C  0.51521648  0.85584168  0.66847260     0.93900
O66         O  0.53344800  0.85252711  0.65715995    -0.82200
O67         O  0.20565086  0.49184852  0.37784459    -0.81700
C68         C  0.13273439  0.51353166  0.43472969     0.97700
O69         O  0.15999503  0.52579310  0.43625347    -0.70800
O70         O  0.17696235  0.48938268  0.44155478    -0.74400
Al71       Al  0.18773648  0.52018985  0.42036265     1.49000
C72         C  0.18024028  0.46834370  0.43780293     0.92900
O73         O  0.12638179  0.43939738  0.39659968    -0.80600
O74         O  0.15113259  0.50770988  0.35579673    -0.74200
Al75       Al  0.16594843  0.46721645  0.38768113     1.90100
O76         O  0.10804996  0.46374730  0.38165375    -0.73200
O77         O  0.15958761  0.54494249  0.38906378    -0.73100
O78         O  0.11937533  0.49986211  0.41647889    -0.78700
O79         O  0.20167088  0.55407141  0.40178243    -0.76900
O80         O  0.16358971  0.49699715  0.39825215    -1.13100
O81         O  0.22052843  0.51918628  0.40946978    -0.72300
C82         C  0.22599701  0.50989873  0.39105109     0.98500
C83         C  0.10476529  0.44052406  0.38975727     0.94800
Al84       Al  0.13684468  0.50348344  0.38669523     1.55600
O85         O  0.17817690  0.45897881  0.41708145    -0.76900
C86         C  0.18632139  0.56259582  0.39254156     0.99000
C87         C  0.15360980  0.48889444  0.34479197     0.93900
O88         O  0.15524455  0.46941543  0.35573677    -0.82200
O89         O  0.29607932  0.79779911  0.38109524    -0.81700
C90         C  0.40219412  0.86879580  0.42942849     0.97700
O91         O  0.38664512  0.84139240  0.42960945    -0.70800
O92         O  0.33418728  0.82663341  0.44208204    -0.74400
Al93       Al  0.34889802  0.81498636  0.41736013     1.49000
C94         C  0.30964762  0.82399046  0.44189592     0.92900
O95         O  0.32966668  0.87708988  0.40008828    -0.80600
O96         O  0.36665110  0.85302144  0.35370679    -0.74200
Al97       Al  0.31492522  0.83752606  0.39106885     1.90100
O98         O  0.37162800  0.89574811  0.38223742    -0.73200
O99         O  0.39853809  0.84343579  0.38237694    -0.73100
O100        O  0.39921930  0.88325060  0.41352153    -0.78700
O101        O  0.36367073  0.80076714  0.39443082    -0.76900
O102        O  0.34824448  0.83976317  0.39746636    -1.13100
O103        O  0.31136317  0.78277622  0.41011762    -0.72300
C104        C  0.29392200  0.77746091  0.39352569     0.98500
C105        C  0.35234561  0.89884762  0.39171039     0.94800
Al106      Al  0.38125049  0.86669875  0.38401840     1.55600
O107        O  0.29904385  0.82603905  0.42262884    -0.76900
C108        C  0.38790400  0.81638604  0.38441415     0.99000
C109        C  0.34364693  0.84958654  0.34500546     0.93900
O110        O  0.32387370  0.84777099  0.35826646    -0.82200
O111        O  0.51610740  0.71591167  0.37857698    -0.81700
C112        C  0.48455322  0.61724349  0.43498374     0.97700
O113        O  0.47415294  0.63331008  0.43564581    -0.70800
O114        O  0.51336787  0.68843294  0.44309429    -0.74400
Al115      Al  0.48378148  0.66849837  0.42029340     1.49000
C116        C  0.53526269  0.71363259  0.43994513     0.92900
O117        O  0.56550335  0.69009027  0.40034272    -0.80600
O118        O  0.50026594  0.64542844  0.35657689    -0.74200
Al119      Al  0.53917325  0.70136342  0.39012642     1.90100
O120        O  0.54060571  0.64591933  0.38565991    -0.73200
O121        O  0.45916013  0.61519764  0.38774301    -0.73100
O122        O  0.50074669  0.61901765  0.41829923    -0.78700
O123        O  0.45148304  0.64891176  0.39985408    -0.76900
O124        O  0.50799054  0.66800295  0.39953986    -1.13100
O125        O  0.48777634  0.70364183  0.40950473    -0.72300
C126        C  0.49779852  0.71799304  0.39078992     0.98500
C127        C  0.56414691  0.66718259  0.39339045     0.94800
Al128      Al  0.50085834  0.63424672  0.38802119     1.55600
O129        O  0.54573413  0.72163792  0.41954064    -0.76900
C130        C  0.44224039  0.62447841  0.39037647     0.99000
C131        C  0.52083199  0.66759183  0.34661147     0.93900
O132        O  0.53938028  0.68892591  0.35870675    -0.82200
O133        O  0.69193297  0.53276837  0.35176864    -0.81700
C134        C  0.62575631  0.48961426  0.43498793     0.97700
O135        O  0.61599954  0.49095382  0.41508713    -0.70800
O136        O  0.64452027  0.54246414  0.39597206    -0.74400
Al137      Al  0.63453044  0.50564977  0.38488460     1.49000
C138        C  0.66729421  0.56685345  0.39269661     0.92900
O139        O  0.71725709  0.55315793  0.41494175    -0.80600
O140        O  0.68650639  0.47426396  0.38935463    -0.74200
Al141      Al  0.70220120  0.54088688  0.38369944     1.90100
O142        O  0.70467512  0.50991691  0.42728137    -0.73200
O143        O  0.63262556  0.45184207  0.40254691    -0.73100
O144        O  0.65054289  0.49280376  0.43665519    -0.78700
O145        O  0.61967424  0.46741099  0.37257948    -0.76900
O146        O  0.66845080  0.51052672  0.39351945    -1.13100
O147        O  0.64614182  0.51923849  0.35318950    -0.72300
C148        C  0.66879207  0.52637482  0.34141304     0.98500
C149        C  0.72003725  0.53710676  0.42934329     0.94800
Al150      Al  0.66861697  0.48451218  0.41231891     1.55600
O151        O  0.69025790  0.56872392  0.38531021    -0.76900
C152        C  0.61682462  0.44668707  0.38481643     0.99000
C153        C  0.71042623  0.49144832  0.37944781     0.93900
O154        O  0.72077483  0.51870349  0.37961179    -0.82200
O155        O  0.47114900  0.30465131  0.65509993    -0.81700
C156        C  0.52140723  0.37570182  0.57501924     0.97700
O157        O  0.51955806  0.38407924  0.59530524    -0.70800
O158        O  0.46699630  0.35757542  0.61184553    -0.74400
Al159      Al  0.50215454  0.36396937  0.62398049     1.49000
C160        C  0.44176444  0.33643721  0.61586412     0.92900
O161        O  0.45071321  0.28389950  0.59072232    -0.80600
O162        O  0.52714094  0.30615774  0.61749061    -0.74200
Al163      Al  0.46285247  0.29648487  0.62266239     1.90100
O164        O  0.49355519  0.29440506  0.57862445    -0.73200
O165        O  0.55451449  0.36190497  0.60762184    -0.73100
O166        O  0.51669175  0.35042072  0.57193084    -0.78700
O167        O  0.53907137  0.37547857  0.63740204    -0.76900
O168        O  0.49513601  0.32956174  0.61410101    -1.13100
O169        O  0.48615862  0.35103555  0.65456877    -0.72300
C170        C  0.47807634  0.32786828  0.66578179     0.98500
C171        C  0.46636056  0.28047931  0.57617799     0.94800
Al172      Al  0.52073867  0.32824792  0.59553830     1.55600
O173        O  0.43775623  0.31223371  0.62254618    -0.76900
C174        C  0.55976701  0.37773782  0.62543059     0.99000
C175        C  0.50786995  0.28140051  0.62503574     0.93900
O176        O  0.48133108  0.27387850  0.62502783    -0.82200
O177        O  0.47050880  0.17090177  0.34927401    -0.81700
C178        C  0.52404051  0.15795895  0.42903425     0.97700
O179        O  0.52355408  0.14805857  0.40876997    -0.70800
O180        O  0.47101017  0.11773958  0.39317842    -0.74400
Al181      Al  0.50510783  0.14829064  0.38008006     1.49000
C182        C  0.44533580  0.11178141  0.39118377     0.92900
O183        O  0.45395108  0.17516630  0.41360834    -0.80600
O184        O  0.52929053  0.23155421  0.38436317    -0.74200
Al185      Al  0.46456396  0.17296415  0.38174187     1.90100
O186        O  0.49691669  0.21073793  0.42400061    -0.73200
O187        O  0.55714446  0.20552721  0.39543840    -0.73100
O188        O  0.51933680  0.17836967  0.43165042    -0.78700
O189        O  0.54104275  0.17592895  0.36557496    -0.76900
O190        O  0.49747637  0.17495389  0.38964283    -1.13100
O191        O  0.48808593  0.14266095  0.34978083    -0.72300
C192        C  0.47803036  0.15553062  0.33856773     0.98500
C193        C  0.46982517  0.19626388  0.42703308     0.94800
Al194      Al  0.52341910  0.20407836  0.40735501     1.55600
O195        O  0.44008182  0.13092765  0.38453036    -0.76900
C196        C  0.56198385  0.19579731  0.37702171     0.99000
C197        C  0.50973332  0.23502530  0.37598909     0.93900
O198        O  0.48308828  0.21477230  0.37705607    -0.82200
O199        O  0.83543129  0.53690515  0.65564894    -0.81700
C200        C  0.84497554  0.48748563  0.57129101     0.97700
O201        O  0.85648194  0.48780032  0.59078114    -0.70800
O202        O  0.88738225  0.53905102  0.60957013    -0.74400
Al203      Al  0.85675060  0.50342087  0.62115545     1.49000
C204        C  0.89303326  0.56448006  0.61302345     0.92900
O205        O  0.82854939  0.55545906  0.59247405    -0.80600
O206        O  0.77377190  0.47873710  0.62086104    -0.74200
Al207      Al  0.83176482  0.54380664  0.62370390     1.90100
O208        O  0.79172960  0.51311824  0.58221649    -0.73200
O209        O  0.79892976  0.45201248  0.60524442    -0.73100
O210        O  0.82424253  0.49187448  0.57051818    -0.78700
O211        O  0.82970992  0.46607059  0.63402716    -0.76900
O212        O  0.82972379  0.51139321  0.61385860    -1.13100
O213        O  0.86214960  0.51745594  0.65261723    -0.72300
C214        C  0.85043864  0.52797605  0.66488528     0.98500
C215        C  0.80719535  0.54012998  0.57915315     0.94800
Al216      Al  0.79981544  0.48623519  0.59627218     1.55600
O217        O  0.87354395  0.56889517  0.62027320    -0.76900
C218        C  0.80853401  0.44597404  0.62294808     0.99000
C219        C  0.77036491  0.49750877  0.63096099     0.93900
O220        O  0.78994617  0.52445700  0.62985560    -0.82200
O221        O  0.83693160  0.32411880  0.34790796    -0.81700
C222        C  0.85254702  0.38716395  0.43083917     0.97700
O223        O  0.86442962  0.39815995  0.41126225    -0.70800
O224        O  0.89191588  0.37535507  0.39297018    -0.74400
Al225      Al  0.86289270  0.38123982  0.38125712     1.49000
C226        C  0.89516912  0.35410362  0.39074138     0.92900
O227        O  0.82946883  0.29897110  0.41152391    -0.80600
O228        O  0.77792567  0.32191405  0.38256633    -0.74200
Al229      Al  0.83340771  0.31379085  0.38003594     1.90100
O230        O  0.79515259  0.30655059  0.42166021    -0.73200
O231        O  0.80667794  0.37615861  0.39695829    -0.73100
O232        O  0.83033036  0.36175995  0.43201326    -0.78700
O233        O  0.83772950  0.39262145  0.36812215    -0.76900
O234        O  0.83402205  0.34568603  0.38925297    -1.13100
O235        O  0.86691971  0.37123437  0.35009820    -0.72300
C236        C  0.85293294  0.34837128  0.33803516     0.98500
C237        C  0.80869990  0.29382507  0.42494530     0.94800
Al238      Al  0.80506780  0.34190462  0.40674532     1.55600
O239        O  0.87449885  0.32993971  0.38333920    -0.76900
C240        C  0.81795396  0.39276457  0.37964632     0.99000
C241        C  0.77298659  0.29834508  0.37360420     0.93900
O242        O  0.79185299  0.29118115  0.37456178    -0.82200
O243        O  0.68871230  0.17157319  0.65109734    -0.81700
C244        C  0.62304310  0.14747794  0.56802858     0.97700
O245        O  0.61329421  0.13519388  0.58768120    -0.70800
O246        O  0.64101371  0.11236202  0.60551899    -0.74400
Al247      Al  0.63141301  0.13876462  0.61751980     1.49000
C248        C  0.66297270  0.11103057  0.61025775     0.92900
O249        O  0.71256309  0.17616910  0.58745513    -0.80600
O250        O  0.68574111  0.22562566  0.61526516    -0.74200
Al251      Al  0.69883553  0.17366186  0.61897698     1.90100
O252        O  0.70244813  0.20855439  0.57606956    -0.73200
O253        O  0.63081195  0.19249064  0.60210181    -0.73100
O254        O  0.64757789  0.17078805  0.56660818    -0.78700
O255        O  0.61668879  0.16109231  0.63071294    -0.76900
O256        O  0.66551963  0.16969567  0.60946650    -1.13100
O257        O  0.64286499  0.13632409  0.64878447    -0.72300
C258        C  0.66510467  0.15310460  0.66088349     0.98500
C259        C  0.71596543  0.19561619  0.57322466     0.94800
Al260      Al  0.66656453  0.19706607  0.59158966     1.55600
O261        O  0.68570641  0.13304106  0.61816359    -0.76900
C262        C  0.61448675  0.17984352  0.61943859     0.99000
C263        C  0.71053723  0.23294324  0.62301760     0.93900
O264        O  0.71951586  0.21554626  0.62218848    -0.82200
O265        O  0.70899099  0.52322592  0.12860675    -0.81700
C266        C  0.60729217  0.48998249  0.07564076     0.97700
O267        O  0.62383476  0.48023841  0.07352572    -0.70800
O268        O  0.67831569  0.52024760  0.06553146    -0.74400
Al269      Al  0.65952204  0.48987304  0.08791433     1.49000
C270        C  0.70323402  0.54255657  0.06844685     0.92900
O271        O  0.67751482  0.56963644  0.11012019    -0.80600
O272        O  0.63797056  0.50220126  0.15340481    -0.74200
Al273      Al  0.69162812  0.54480285  0.11891986     1.90100
O274        O  0.63489430  0.54296776  0.12694709    -0.73200
O275        O  0.60711815  0.46227243  0.12156712    -0.73100
O276        O  0.60839704  0.50435803  0.09348142    -0.78700
O277        O  0.64118929  0.45652516  0.10730229    -0.76900
O278        O  0.65873762  0.51280404  0.10981714    -1.13100
O279        O  0.69510134  0.49452033  0.09783301    -0.72300
C280        C  0.71111255  0.50538041  0.11564772     0.98500
C281        C  0.65416540  0.56675965  0.11787492     0.94800
Al282      Al  0.62500510  0.50376304  0.12281195     1.55600
O283        O  0.71115383  0.55310318  0.08884115    -0.76900
C284        C  0.61694148  0.44613271  0.11730158     0.99000
C285        C  0.65989029  0.52305996  0.16336122     0.93900
O286        O  0.68001453  0.54330127  0.15124453    -0.82200
O287        O  0.49017176  0.29829021  0.87760923    -0.81700
C288        C  0.52928370  0.40406697  0.92681840     0.97700
O289        O  0.54083179  0.38900120  0.92661209    -0.70800
O290        O  0.50238228  0.33539731  0.93908870    -0.74400
Al291      Al  0.52869755  0.35176977  0.91366446     1.49000
C292        C  0.47891451  0.31097385  0.93869634     0.92900
O293        O  0.44456633  0.32929610  0.89848345    -0.80600
O294        O  0.50564154  0.36865568  0.85094932    -0.74200
Al295      Al  0.46957463  0.31614120  0.88841533     1.90100
O296        O  0.46824193  0.37172671  0.88110616    -0.73200
O297        O  0.54954231  0.40162648  0.87880765    -0.73100
O298        O  0.51089711  0.40038022  0.91142020    -0.78700
O299        O  0.55791180  0.36807437  0.89014208    -0.76900
O300        O  0.50195814  0.35012614  0.89457751    -1.13100
O301        O  0.52282164  0.31510743  0.90547743    -0.72300
C302        C  0.50922912  0.29702487  0.88936081     0.98500
C303        C  0.44541924  0.35151510  0.89058578     0.94800
Al304      Al  0.50798798  0.38281654  0.88163115     1.55600
O305        O  0.46567680  0.30054182  0.91947139    -0.76900
C306        C  0.56628880  0.39195774  0.88003864     0.99000
C307        C  0.48517550  0.34513673  0.84250095     0.93900
O308        O  0.46739594  0.32488909  0.85598134    -0.82200
O309        O  0.71209171  0.21922075  0.86991686    -0.81700
C310        C  0.61172368  0.15121781  0.92607360     0.97700
O311        O  0.62721649  0.17862808  0.92515006    -0.70800
O312        O  0.68186865  0.19745049  0.93358148    -0.74400
Al313      Al  0.66284601  0.20490415  0.90943762     1.49000
C314        C  0.70597263  0.19924855  0.93186720     0.92900
O315        O  0.68245823  0.14247674  0.89299540    -0.80600
O316        O  0.63914596  0.16057007  0.84792016    -0.74200
Al317      Al  0.69517867  0.18091598  0.88205882     1.90100
O318        O  0.63875240  0.12124426  0.87797362    -0.73200
O319        O  0.60922744  0.17156771  0.87835504    -0.73100
O320        O  0.61360644  0.13575676  0.91039640    -0.78700
O321        O  0.64395158  0.21566198  0.88742636    -0.76900
O322        O  0.66216464  0.17853150  0.89034738    -1.13100
O323        O  0.69852548  0.23697355  0.89826680    -0.72300
C324        C  0.71444452  0.24056457  0.88085731     0.98500
C325        C  0.65956118  0.11974949  0.88616600     0.94800
Al326      Al  0.62811895  0.14970558  0.87954044     1.55600
O327        O  0.71432594  0.19537697  0.91212606    -0.76900
C328        C  0.61882037  0.19850687  0.87949978     0.99000
C329        C  0.66175961  0.16413511  0.83816408     0.93900
O330        O  0.68315118  0.16793928  0.85023074    -0.82200
O331        O  0.80021768  0.52303764  0.87437462    -0.81700
C332        C  0.87366515  0.50124914  0.92993183     0.97700
O333        O  0.84643066  0.48893224  0.93167809    -0.70800
O334        O  0.82816263  0.52467754  0.93841560    -0.74400
Al335      Al  0.81845986  0.49464981  0.91636915     1.49000
C336        C  0.82380962  0.54511841  0.93507116     0.92900
O337        O  0.87826942  0.57692594  0.89440325    -0.80600
O338        O  0.85622877  0.51083862  0.85157904    -0.74200
Al339      Al  0.83929735  0.54845915  0.88495065     1.90100
O340        O  0.89789352  0.55386448  0.87902043    -0.73200
O341        O  0.84757342  0.47197136  0.88333783    -0.73100
O342        O  0.88704917  0.51619940  0.91218744    -0.78700
O343        O  0.80550082  0.46173234  0.89712515    -0.76900
O344        O  0.84255577  0.51892129  0.89467465    -1.13100
O345        O  0.78535492  0.49500339  0.90556812    -0.72300
C346        C  0.77985322  0.50425984  0.88718119     0.98500
C347        C  0.90024301  0.57684371  0.88687177     0.94800
Al348      Al  0.86987128  0.51369103  0.88255018     1.55600
O349        O  0.82567351  0.55473265  0.91449332    -0.76900
C350        C  0.82097005  0.45386773  0.88706927     0.99000
C351        C  0.85415700  0.53031287  0.84133674     0.93900
O352        O  0.85147680  0.54860226  0.85313445    -0.82200
O353        O  0.49019547  0.20849441  0.13186806    -0.81700
C354        C  0.52761829  0.14806241  0.07473567     0.97700
O355        O  0.53822748  0.17515848  0.07511119    -0.70800
O356        O  0.49866683  0.18845602  0.06704768    -0.74400
Al357      Al  0.52661578  0.19869366  0.09096802     1.49000
C358        C  0.47640550  0.19005535  0.06961764     0.92900
O359        O  0.44420999  0.13152103  0.10611638    -0.80600
O360        O  0.50670135  0.15442537  0.15261889    -0.74200
Al361      Al  0.46887544  0.17003592  0.11862150     1.90100
O362        O  0.46871185  0.11346181  0.12116973    -0.73200
O363        O  0.54955819  0.16999447  0.12330824    -0.73100
O364        O  0.51061596  0.13195486  0.09062434    -0.78700
O365        O  0.55728356  0.21230784  0.11279515    -0.76900
O366        O  0.50123029  0.17113687  0.11020030    -1.13100
O367        O  0.52089304  0.22829466  0.10243676    -0.72300
C368        C  0.50866070  0.23067285  0.12040122     0.98500
C369        C  0.44627350  0.10986923  0.11111180     0.94800
Al370      Al  0.50826045  0.14466710  0.12108544     1.55600
O371        O  0.46418094  0.18518684  0.08948389    -0.76900
C372        C  0.56615273  0.19729244  0.12209738     0.99000
C373        C  0.48532712  0.15372900  0.16211711     0.93900
O374        O  0.46675039  0.15524994  0.14979281    -0.82200
O375        O  0.79873531  0.30908504  0.12808718    -0.81700
C376        C  0.86543628  0.41191266  0.07458619     0.97700
O377        O  0.83823353  0.39455782  0.07411699    -0.70800
O378        O  0.82367438  0.34112132  0.06464586    -0.74400
Al379      Al  0.81267987  0.35782452  0.08845342     1.49000
C380        C  0.82241816  0.31725444  0.06641224     0.92900
O381        O  0.87625943  0.34191990  0.10666687    -0.80600
O382        O  0.85260192  0.38105507  0.15156868    -0.74200
Al383      Al  0.83748276  0.32731193  0.11677343     1.90100
O384        O  0.89513719  0.38503387  0.12280240    -0.73200
O385        O  0.84094040  0.41027558  0.12161595    -0.73100
O386        O  0.88059070  0.41039464  0.09065660    -0.78700
O387        O  0.79865506  0.37422009  0.11012415    -0.76900
O388        O  0.83851960  0.35964029  0.10856965    -1.13100
O389        O  0.78134238  0.32071797  0.09823829    -0.72300
C390        C  0.77750833  0.30531062  0.11608522     0.98500
C391        C  0.89794855  0.36491425  0.11457067     0.94800
Al392      Al  0.86519231  0.39383417  0.12066625     1.55600
O393        O  0.82477636  0.30840384  0.08641160    -0.76900
C394        C  0.81372546  0.39879503  0.11971980     0.99000
C395        C  0.85050400  0.35906832  0.16117849     0.93900
O396        O  0.84939239  0.33900708  0.14882722    -0.82200
O397        O  0.31069336  0.48208344  0.85659516    -0.81700
C398        C  0.38098488  0.53125366  0.93675026     0.97700
O399        O  0.39029438  0.53076850  0.91640525    -0.70800
O400        O  0.36416693  0.47929469  0.89748804    -0.74400
Al401      Al  0.37061003  0.51505496  0.88694409     1.49000
C402        C  0.34227941  0.45393766  0.89616798     0.92900
O403        O  0.29012688  0.46392081  0.92100094    -0.80600
O404        O  0.31421727  0.54083999  0.89399056    -0.74200
Al405      Al  0.30289162  0.47536910  0.88909141     1.90100
O406        O  0.30047839  0.50668264  0.93255947    -0.73200
O407        O  0.36952388  0.56699831  0.90561754    -0.73100
O408        O  0.35588182  0.52700786  0.93968734    -0.78700
O409        O  0.38260980  0.55282802  0.87484290    -0.76900
O410        O  0.33619845  0.50766179  0.89724727    -1.13100
O411        O  0.35766320  0.50078083  0.85585650    -0.72300
C412        C  0.33375495  0.49054712  0.84520388     0.98500
C413        C  0.28755430  0.47973480  0.93587339     0.94800
Al414      Al  0.33507634  0.53310343  0.91622014     1.55600
O415        O  0.31775044  0.44972426  0.89049020    -0.76900
C416        C  0.38523989  0.57303491  0.88770826     0.99000
C417        C  0.28972721  0.52181695  0.88577358     0.93900
O418        O  0.28159205  0.49504156  0.88582417    -0.82200
O419        O  0.16929073  0.47418512  0.15711775    -0.81700
C420        C  0.15348959  0.52419827  0.07527349     0.97700
O421        O  0.14570159  0.52530701  0.09595147    -0.70800
O422        O  0.11460258  0.47448235  0.11498118    -0.74400
Al423      Al  0.14767756  0.50899616  0.12509834     1.49000
C424        C  0.10754230  0.44846888  0.11756996     0.92900
O425        O  0.16580214  0.44955278  0.09400831    -0.80600
O426        O  0.22855329  0.52568773  0.11471013    -0.74200
Al427      Al  0.16781290  0.46449386  0.12492442     1.90100
O428        O  0.19963458  0.49010103  0.07792367    -0.73200
O429        O  0.20563640  0.55650439  0.10532213    -0.73100
O430        O  0.17182018  0.51690665  0.07170527    -0.78700
O431        O  0.17836133  0.54562566  0.13641232    -0.76900
O432        O  0.17145322  0.49774612  0.11486366    -1.13100
O433        O  0.14428306  0.49540101  0.15635159    -0.72300
C434        C  0.15648248  0.48477236  0.16763951     0.98500
C435        C  0.18310873  0.46293125  0.07737436     0.94800
Al436      Al  0.19904452  0.52022880  0.09426610     1.55600
O437        O  0.12580698  0.44221182  0.12451401    -0.76900
C438        C  0.19865493  0.56440532  0.12370750     0.99000
C439        C  0.23075075  0.50649641  0.12526337     0.93900
O440        O  0.20928611  0.48065706  0.12739747    -0.82200
O441        O  0.17101461  0.69580420  0.85441265    -0.81700
C442        C  0.14565136  0.62943650  0.93756888     0.97700
O443        O  0.13498884  0.61944163  0.91746959    -0.70800
O444        O  0.11051848  0.64471255  0.89712652    -0.74400
Al445      Al  0.13968666  0.63782707  0.88730520     1.49000
C446        C  0.10832192  0.66637516  0.89319529     0.92900
O447        O  0.17164653  0.71964568  0.91767218    -0.80600
O448        O  0.22492248  0.69608789  0.89414831    -0.74200
Al449      Al  0.17108228  0.70553618  0.88642130     1.90100
O450        O  0.20317941  0.70994803  0.93167729    -0.73200
O451        O  0.19400115  0.64155801  0.90630022    -0.73100
O452        O  0.16726883  0.65500247  0.93964864    -0.78700
O453        O  0.16518367  0.62575795  0.87610524    -0.76900
O454        O  0.16842685  0.67292139  0.89654234    -1.13100
O455        O  0.13880706  0.64909501  0.85554332    -0.72300
C456        C  0.15478346  0.67207953  0.84389852     0.98500
C457        C  0.18925656  0.72249715  0.93352162     0.94800
Al458      Al  0.19503822  0.67548170  0.91617402     1.55600
O459        O  0.13001918  0.69014308  0.88629459    -0.76900
C460        C  0.18426344  0.62543697  0.88851501     0.99000
C461        C  0.23120491  0.71968329  0.88451546     0.93900
O462        O  0.21300529  0.72768766  0.88405861    -0.82200
O463        O  0.53264138  0.84849968  0.85633664    -0.81700
C464        C  0.48561622  0.86638915  0.93840703     0.97700
O465        O  0.48567564  0.87638763  0.91825278    -0.70800
O466        O  0.53698866  0.90472965  0.89934465    -0.74400
Al467      Al  0.50119051  0.87404014  0.88838125     1.49000
C468        C  0.56217151  0.90941554  0.89681778     0.92900
O469        O  0.55173180  0.84613337  0.92036657    -0.80600
O470        O  0.47430947  0.79049968  0.89363768    -0.74200
Al471      Al  0.53995558  0.84727213  0.88865379     1.90100
O472        O  0.50904514  0.81090837  0.93182832    -0.73200
O473        O  0.44894688  0.81837948  0.90649378    -0.73100
O474        O  0.48953886  0.84543342  0.94053941    -0.78700
O475        O  0.46381586  0.84671856  0.87588319    -0.76900
O476        O  0.50818480  0.84690451  0.89767032    -1.13100
O477        O  0.51522413  0.87704842  0.85710355    -0.72300
C478        C  0.52441725  0.86338841  0.84580093     0.98500
C479        C  0.53609223  0.82605094  0.93465333     0.94800
Al480      Al  0.48272250  0.81874168  0.91646119     1.55600
O481        O  0.56593933  0.88922190  0.89028466    -0.76900
C482        C  0.44342726  0.82781379  0.88834978     0.99000
C483        C  0.49250182  0.78561558  0.88433786     0.93900
O484        O  0.51956957  0.80496286  0.88469961    -0.82200
O485        O  0.31312836  0.83886962  0.15677570    -0.81700
C486        C  0.38947286  0.87625288  0.07930524     0.97700
O487        O  0.39663528  0.88615512  0.09997153    -0.70800
O488        O  0.36276057  0.90336046  0.11549483    -0.74400
Al489      Al  0.37339211  0.87823958  0.12799231     1.49000
C490        C  0.33900905  0.90214919  0.11755468     0.92900
O491        O  0.29461734  0.83747164  0.09212235    -0.80600
O492        O  0.32590417  0.79181875  0.11813013    -0.74200
Al493      Al  0.30614956  0.83882915  0.12419697     1.90100
O494        O  0.31158660  0.81121479  0.07925845    -0.73200
O495        O  0.38105884  0.82976886  0.11070970    -0.73100
O496        O  0.36558084  0.85308602  0.07541734    -0.78700
O497        O  0.38798011  0.85629701  0.14188188    -0.76900
O498        O  0.34165139  0.84687489  0.11666644    -1.13100
O499        O  0.35723805  0.87718582  0.15811834    -0.72300
C500        C  0.33453178  0.85790706  0.16844839     0.98500
C501        C  0.29583876  0.82171739  0.07634958     0.94800
Al502      Al  0.34566126  0.82343567  0.09752772     1.55600
O503        O  0.31627459  0.87911024  0.12446432    -0.76900
C504        C  0.39353541  0.84005924  0.13011078     0.99000
C505        C  0.30022182  0.78140083  0.12527184     0.93900
O506        O  0.28892296  0.79688892  0.12548306    -0.82200
O507        O  0.52932373  0.70693400  0.16120698    -0.81700
C508        C  0.47565026  0.64271324  0.07925920     0.97700
O509        O  0.47777724  0.63196986  0.09836211    -0.70800
O510        O  0.53094446  0.65728295  0.11297891    -0.74400
Al511      Al  0.49661043  0.64976923  0.12762649     1.49000
C512        C  0.55637431  0.67797543  0.11694762     0.92900
O513        O  0.54569346  0.73131044  0.09756034    -0.80600
O514        O  0.47132175  0.70755431  0.12976976    -0.74200
Al515      Al  0.53573543  0.71715824  0.12920699     1.90100
O516        O  0.50237711  0.72241424  0.08892771    -0.73200
O517        O  0.44316331  0.65293130  0.11703389    -0.73100
O518        O  0.47880159  0.66750606  0.07904192    -0.78700
O519        O  0.46078600  0.63711781  0.14328238    -0.76900
O520        O  0.50292953  0.68472128  0.12067711    -1.13100
O521        O  0.51430999  0.66063651  0.15808264    -0.72300
C522        C  0.52283350  0.68312333  0.17051117     0.98500
C523        C  0.52930849  0.73584542  0.08491941     0.94800
Al524      Al  0.47617551  0.68737470  0.10504081     1.55600
O525        O  0.56077130  0.70157067  0.12559050    -0.76900
C526        C  0.43934264  0.63645128  0.13407497     0.99000
C527        C  0.49109222  0.73209613  0.13722680     0.93900
O528        O  0.51757193  0.73968247  0.13517260    -0.82200
C529        C  0.45155964  0.82203846  0.12605090    -0.01900
C530        C  0.45003628  0.80989716  0.14831891     0.06700
C531        C  0.43305897  0.81209666  0.16598166    -0.07800
C532        C  0.41596009  0.82401891  0.16108014     0.04200
C533        C  0.41529503  0.83324915  0.13804746    -0.15100
C534        C  0.43402416  0.83317572  0.12105986    -0.08400
C535        C  0.46138057  0.79031998  0.15163405     0.05100
C536        C  0.49140102  0.80148951  0.15085418    -0.09500
C537        C  0.50209825  0.78287183  0.14845907     0.00100
C538        C  0.48243605  0.75245896  0.14623106     0.00000
C539        C  0.45258304  0.74142828  0.14944032    -0.13100
C540        C  0.44201443  0.75993378  0.15203487     0.00400
C541        C  0.53316011  0.79577287  0.14730236     0.39700
C542        C  0.41092799  0.74720939  0.15305822     0.36300
C543        C  0.46961445  0.82191779  0.10744763     0.36100
C544        C  0.39773761  0.82451922  0.17937886     0.36800
N545        N  0.55808273  0.80611437  0.14657295    -0.44000
N546        N  0.38605414  0.73714890  0.15387340    -0.44400
N547        N  0.38319118  0.82508510  0.19402624    -0.41800
N548        N  0.48418635  0.82253679  0.09229666    -0.43200
H549        H  0.43416663  0.84092525  0.10345613     0.13000
H550        H  0.43190468  0.80298580  0.18319010     0.09400
H551        H  0.50643017  0.82486790  0.15094920     0.10500
H552        H  0.43705703  0.71817599  0.14850414     0.16300
C553        C  0.56932618  0.77448234  0.02916480    -0.01900
C554        C  0.55590819  0.79013012  0.02338838     0.06700
C555        C  0.53616259  0.79021543  0.03929959    -0.07800
C556        C  0.52834636  0.77370849  0.05989923     0.04200
C557        C  0.54080974  0.75703080  0.06526309    -0.15100
C558        C  0.56207927  0.75849677  0.05018291    -0.08400
C559        C  0.55779696  0.80206732  0.99941436     0.05100
C560        C  0.54654392  0.78232192  0.98069918    -0.09500
C561        C  0.54160694  0.79056201  0.95881390     0.00100
C562        C  0.54835526  0.81927605  0.95507895     0.00000
C563        C  0.56159841  0.83972614  0.97324742    -0.13100
C564        C  0.56610926  0.83126883  0.99541559     0.00400
C565        C  0.52806832  0.76852071  0.94089082     0.39700
C566        C  0.57813264  0.85252253  0.01405302     0.36300
C567        C  0.58953960  0.77344530  0.01325402     0.36100
C568        C  0.50632289  0.77304945  0.07472100     0.36800
N569        N  0.51709438  0.75035331  0.92691635    -0.44000
N570        N  0.58773101  0.86953747  0.02902184    -0.44400
N571        N  0.48831460  0.77158511  0.08669539    -0.41800
N572        N  0.60556600  0.77246793  0.00037667    -0.43200
H573        H  0.57167044  0.74570233  0.05405010     0.13000
H574        H  0.52534936  0.80171108  0.03486858     0.09400
H575        H  0.53974144  0.75978024  0.98364060     0.10500
H576        H  0.56648282  0.86172451  0.97066488     0.16300
C577        C  0.41383555  0.88820218  0.01698266    -0.01900
C578        C  0.44305947  0.89626842  0.01944055     0.06700
C579        C  0.45621738  0.90405752  0.04163582    -0.07800
C580        C  0.43974824  0.90061324  0.06170849     0.04200
C581        C  0.40971874  0.88967467  0.05942608    -0.15100
C582        C  0.39762480  0.88549672  0.03691320    -0.08400
C583        C  0.45834765  0.89189309  0.99988807     0.05100
C584        C  0.46419137  0.90807598  0.97923044    -0.09500
C585        C  0.47429333  0.90118736  0.95913728     0.00100
C586        C  0.47885550  0.87765536  0.95967576     0.00000
C587        C  0.47456352  0.86270851  0.98095069    -0.13100
C588        C  0.46417226  0.86940415  0.00083974     0.00400
C589        C  0.47913151  0.91837717  0.93831209     0.39700
C590        C  0.45782171  0.85153542  0.02152033     0.36300
C591        C  0.39905416  0.87939234  0.99462596     0.36100
C592        C  0.45351742  0.90536530  0.08435367     0.36800
N593        N  0.48306775  0.93227041  0.92168240    -0.44000
N594        N  0.45272615  0.83719349  0.03805082    -0.44400
N595        N  0.46459955  0.90912161  0.10247627    -0.41800
N596        N  0.38709019  0.87215413  0.97678227    -0.43200
H597        H  0.37469258  0.87758102  0.03501284     0.13000
H598        H  0.47878913  0.91049332  0.04345059     0.09400
H599        H  0.45980157  0.92545917  0.97859134     0.10500
H600        H  0.47801121  0.84471724  0.98189291     0.16300
C601        C  0.20516053  0.74349718  0.99682470    -0.01900
C602        C  0.22079539  0.77411810  0.99559784     0.06700
C603        C  0.22141183  0.78751945  0.97426474    -0.07800
C604        C  0.20824611  0.77078785  0.95395403     0.04200
C605        C  0.19461377  0.74026951  0.95487118    -0.15100
C606        C  0.19230364  0.72693236  0.97659046    -0.08400
C607        C  0.24086503  0.79167203  0.01500209     0.05100
C608        C  0.26956366  0.79834699  0.01357768    -0.09500
C609        C  0.28811198  0.80923903  0.03300190     0.00100
C610        C  0.27819840  0.81426452  0.05449824     0.00000
C611        C  0.24999347  0.80943019  0.05541405    -0.13100
C612        C  0.23120342  0.79781652  0.03597463     0.00400
C613        C  0.31688972  0.81407210  0.03038672     0.39700
C614        C  0.20176021  0.79115217  0.03820158     0.36300
C615        C  0.20441651  0.72870492  0.01817168     0.36100
C616        C  0.21131727  0.78540332  0.93198238     0.36800
N617        N  0.33973889  0.81749551  0.02808857    -0.44000
N618        N  0.17812057  0.78575731  0.03998320    -0.44400
N619        N  0.21368719  0.79699688  0.91430883    -0.41800
N620        N  0.20399814  0.71697610  0.03528693    -0.43200
H621        H  0.18214827  0.70348830  0.97738771     0.13000
H622        H  0.23366883  0.81106151  0.97314904     0.09400
H623        H  0.27701752  0.79347965  0.99752338     0.10500
H624        H  0.24203671  0.81311610  0.07171761     0.16300
C625        C  0.30452795  0.78743657  0.87529439    -0.01900
C626        C  0.32139880  0.77559933  0.86882247     0.06700
C627        C  0.30740520  0.74593120  0.86331473    -0.07800
C628        C  0.27739013  0.72756659  0.86641058     0.04200
C629        C  0.26097695  0.73892051  0.87537515    -0.15100
C630        C  0.27449430  0.76908244  0.87843759    -0.08400
C631        C  0.35335350  0.79212542  0.87229394     0.05100
C632        C  0.36368132  0.80103497  0.89520068    -0.09500
C633        C  0.39302030  0.81342149  0.90050996     0.00100
C634        C  0.41283694  0.81718553  0.88263258     0.00000
C635        C  0.40282874  0.80941712  0.85945668    -0.13100
C636        C  0.37317428  0.79655693  0.85422705     0.00400
C637        C  0.40215571  0.82223597  0.92449580     0.39700
C638        C  0.36350981  0.78776627  0.83038322     0.36300
C639        C  0.31784598  0.81811353  0.88003429     0.36100
C640        C  0.26411313  0.69704187  0.86092649     0.36800
N641        N  0.40931632  0.82922395  0.94373277    -0.44000
N642        N  0.35573432  0.78063599  0.81127696    -0.44400
N643        N  0.25338740  0.67259539  0.85650444    -0.41800
N644        N  0.32855439  0.84269927  0.88384967    -0.43200
H645        H  0.26200477  0.77810489  0.88490258     0.13000
H646        H  0.32020052  0.73672521  0.85812924     0.09400
H647        H  0.34851710  0.79744007  0.90920727     0.10500
H648        H  0.41796053  0.81233671  0.84564343     0.16300
C649        C  0.14479647  0.54289243  0.01315440    -0.01900
C650        C  0.12993852  0.55754846  0.01666874     0.06700
C651        C  0.11956064  0.55804511  0.03906825    -0.07800
C652        C  0.12557842  0.54605247  0.05831745     0.04200
C653        C  0.14242561  0.53315999  0.05520422    -0.15100
C654        C  0.15082695  0.53080518  0.03232130    -0.08400
C655        C  0.12885667  0.57593853  0.99799466     0.05100
C656        C  0.11294564  0.56306765  0.97745637    -0.09500
C657        C  0.11585759  0.58011853  0.95788997     0.00100
C658        C  0.13521560  0.61069774  0.95882826     0.00000
C659        C  0.14872803  0.62347621  0.98033764    -0.13100
C660        C  0.14602374  0.60646859  0.99967461     0.00400
C661        C  0.09974724  0.56537092  0.93697631     0.39700
C662        C  0.16313007  0.62085645  0.02033752     0.36300
C663        C  0.15572944  0.54162664  0.99030896     0.36100
C664        C  0.11525807  0.54874399  0.08101660     0.36800
N665        N  0.08670710  0.55342079  0.92028621    -0.44000
N666        N  0.17693701  0.63242920  0.03681937    -0.44400
N667        N  0.10698344  0.55097352  0.09917766    -0.41800
N668        N  0.16443268  0.54057586  0.97199327    -0.43200
H669        H  0.16323762  0.52056599  0.02942806     0.13000
H670        H  0.10795048  0.56917740  0.04168340     0.09400
H671        H  0.09929830  0.53955675  0.97636885     0.10500
H672        H  0.16315595  0.64687653  0.98172060     0.16300
C673        C  0.25119740  0.64538116  0.11703005    -0.01900
C674        C  0.24199334  0.65723982  0.13452178     0.06700
C675        C  0.21884794  0.63843695  0.14929226    -0.07800
C676        C  0.20474265  0.60809182  0.14677973     0.04200
C677        C  0.21398146  0.59611184  0.12917020    -0.15100
C678        C  0.23757677  0.61527570  0.11475562    -0.08400
C679        C  0.25561672  0.68923176  0.13666477     0.05100
C680        C  0.23963931  0.70176811  0.13002767    -0.09500
C681        C  0.25320468  0.73202255  0.12757081     0.00100
C682        C  0.28332354  0.75022935  0.13203181     0.00000
C683        C  0.29869505  0.73762045  0.14031462    -0.13100
C684        C  0.28516821  0.70747384  0.14263288     0.00400
C685        C  0.23624557  0.74339619  0.11850329     0.39700
C686        C  0.30234317  0.69563031  0.15014973     0.36300
C687        C  0.27362151  0.66365151  0.10033459     0.36100
C688        C  0.18035161  0.59012048  0.16197898     0.36800
N689        N  0.22267319  0.75249278  0.11114646    -0.44000
N690        N  0.31608156  0.68605301  0.15599885    -0.44400
N691        N  0.16073209  0.57584758  0.17415078    -0.41800
N692        N  0.29149791  0.67825311  0.08690223    -0.43200
H693        H  0.24502762  0.60681522  0.10102650     0.13000
H694        H  0.21153380  0.64753363  0.16259787     0.09400
H695        H  0.21690393  0.68776579  0.12538334     0.10500
H696        H  0.32173660  0.75130723  0.14407812     0.16300
C697        C  0.29765205  0.54800448  0.16163200    -0.01900
C698        C  0.31870083  0.54919297  0.14628408     0.06700
C699        C  0.30973471  0.53135021  0.12631023    -0.07800
C700        C  0.28031526  0.51465502  0.12023401     0.04200
C701        C  0.25942309  0.51516793  0.13466289    -0.15100
C702        C  0.26814996  0.53090399  0.15576400    -0.08400
C703        C  0.34958035  0.57300715  0.14764069     0.05100
C704        C  0.37079825  0.56717496  0.15464689    -0.09500
C705        C  0.40047401  0.58824427  0.15216418     0.00100
C706        C  0.40913482  0.61555442  0.14198893     0.00000
C707        C  0.38767001  0.62174298  0.13641039    -0.13100
C708        C  0.35820297  0.60086045  0.13907858     0.00400
C709        C  0.42128795  0.58055514  0.15886790     0.39700
C710        C  0.33710490  0.60781585  0.13142633     0.36300
C711        C  0.30605150  0.56601715  0.18237130     0.36100
C712        C  0.27250599  0.49990178  0.09784802     0.36800
N713        N  0.43794146  0.57438086  0.16434200    -0.44000
N714        N  0.32015175  0.61329013  0.12528322    -0.44400
N715        N  0.26657817  0.48846149  0.07974781    -0.41800
N716        N  0.31284013  0.58054424  0.19895218    -0.43200
H717        H  0.25212885  0.53172710  0.16667178     0.13000
H718        H  0.32594568  0.53255057  0.11432634     0.09400
H719        H  0.36407029  0.54556536  0.16128013     0.10500
H720        H  0.39392370  0.64282703  0.12885794     0.16300
C721        C  0.18952371  0.45029361  0.01400692    -0.01900
C722        C  0.20880033  0.44021161  0.01505628     0.06700
C723        C  0.21334690  0.43079015  0.03670465    -0.07800
C724        C  0.20128153  0.43409135  0.05746301     0.04200
C725        C  0.18516820  0.44774205  0.05665589    -0.15100
C726        C  0.17814931  0.45428322  0.03477154    -0.08400
C727        C  0.22985707  0.44711497  0.99565400     0.05100
C728        C  0.25606917  0.47393737  0.99682595    -0.09500
C729        C  0.27541181  0.48437336  0.97793964     0.00100
C730        C  0.26899109  0.46749522  0.95719272     0.00000
C731        C  0.24328200  0.43982058  0.95647612    -0.13100
C732        C  0.22355020  0.42971994  0.97543717     0.00400
C733        C  0.30139389  0.51286201  0.98043831     0.39700
C734        C  0.19666777  0.40198863  0.97359064     0.36300
C735        C  0.18359663  0.45954791  0.99207695     0.36100
C736        C  0.20814575  0.42613903  0.07959981     0.36800
N737        N  0.32204180  0.53575718  0.98258892    -0.44000
N738        N  0.17507031  0.37974843  0.97215875    -0.44400
N739        N  0.21360330  0.41978650  0.09737882    -0.41800
N740        N  0.17879427  0.46687570  0.97448147    -0.43200
H741        H  0.16579035  0.46484429  0.03406735     0.13000
H742        H  0.22820792  0.42309480  0.03764259     0.09400
H743        H  0.26089161  0.48739896  0.01234975     0.10500
H744        H  0.23793307  0.42669890  0.94072071     0.16300
C745        C  0.44672854  0.57820884  0.97352107    -0.01900
C746        C  0.43495008  0.57013971  0.99637157     0.06700
C747        C  0.40714202  0.54521915  0.99931110    -0.07800
C748        C  0.39014924  0.53001751  0.97987578     0.04200
C749        C  0.40068492  0.54022853  0.95706558    -0.15100
C750        C  0.42958984  0.56310590  0.95409057    -0.08400
C751        C  0.44916039  0.58944744  0.01692328     0.05100
C752        C  0.45556120  0.61813554  0.01568810    -0.09500
C753        C  0.46547744  0.63634472  0.03531053     0.00100
C754        C  0.46835374  0.62555824  0.05717299     0.00000
C755        C  0.46298577  0.59711257  0.05810603    -0.13100
C756        C  0.45356999  0.57914247  0.03825772     0.00400
C757        C  0.47203855  0.66574214  0.03223559     0.39700
C758        C  0.44834621  0.55015149  0.04026521     0.36300
C759        C  0.47567407  0.60289405  0.96948703     0.36100
C760        C  0.36196486  0.50414081  0.98373078     0.36800
N761        N  0.47737506  0.68929902  0.02970396    -0.44000
N762        N  0.44405672  0.52687717  0.04186902    -0.44400
N763        N  0.33956240  0.48315497  0.98679208    -0.41800
N764        N  0.49877928  0.62279312  0.96620393    -0.43200
H765        H  0.43803707  0.57079091  0.93656833     0.13000
H766        H  0.39798308  0.53855598  0.01677551     0.09400
H767        H  0.45190960  0.62613087  0.99940775     0.10500
H768        H  0.46556698  0.58854942  0.07450360     0.16300
C769        C  0.48864519  0.71490086  0.87256078    -0.01900
C770        C  0.45856230  0.69574238  0.86918898     0.06700
C771        C  0.44075906  0.70710012  0.86640838    -0.07800
C772        C  0.45189955  0.73682885  0.86921742     0.04200
C773        C  0.48164586  0.75592591  0.87492567    -0.15100
C774        C  0.50007648  0.74488857  0.87490131    -0.08400
C775        C  0.44411960  0.66395091  0.87288039     0.05100
C776        C  0.43913362  0.65397491  0.89607137    -0.09500
C777        C  0.42070750  0.62446639  0.90116753     0.00100
C778        C  0.40710280  0.60403758  0.88268453     0.00000
C779        C  0.41360915  0.61389297  0.85934968    -0.13100
C780        C  0.43163373  0.64372183  0.85436856     0.00400
C781        C  0.41576148  0.61612379  0.92563906     0.39700
C782        C  0.43637642  0.65329671  0.83026145     0.36300
C783        C  0.50779335  0.70402519  0.87496629     0.36100
C784        C  0.43185993  0.74671841  0.86708329     0.36800
N785        N  0.41169988  0.60979156  0.94529536    -0.44000
N786        N  0.44024833  0.66110551  0.81095128    -0.44400
N787        N  0.41568853  0.75449210  0.86547061    -0.41800
N788        N  0.52312279  0.69526707  0.87687791    -0.43200
H789        H  0.52302189  0.75926378  0.87862722     0.13000
H790        H  0.41762351  0.69237706  0.86360209     0.09400
H791        H  0.44858017  0.66956713  0.91033483     0.10500
H792        H  0.40351628  0.59850364  0.84504211     0.16300
C793        C  0.26579446  0.57217000  0.86517658    -0.01900
C794        C  0.23620833  0.55667003  0.87155490     0.06700
C795        C  0.22315049  0.52773714  0.87906031    -0.07800
C796        C  0.23973111  0.51491496  0.88206637     0.04200
C797        C  0.27000194  0.53135639  0.87761998    -0.15100
C798        C  0.28240737  0.55950588  0.86825776    -0.08400
C799        C  0.22099683  0.57242080  0.87582929     0.05100
C800        C  0.20246911  0.57295383  0.85888811    -0.09500
C801        C  0.18972875  0.58965226  0.86245293     0.00100
C802        C  0.19566993  0.60618157  0.88332288     0.00000
C803        C  0.21376676  0.60476269  0.90033076    -0.13100
C804        C  0.22632347  0.58825622  0.89676550     0.00400
C805        C  0.17126189  0.58978799  0.84427141     0.39700
C806        C  0.24513135  0.58827950  0.91477973     0.36300
C807        C  0.27998616  0.60196121  0.85725317     0.36100
C808        C  0.22569542  0.48604809  0.89198568     0.36800
N809        N  0.15643239  0.58987088  0.82969273    -0.44000
N810        N  0.26026578  0.58831672  0.92912738    -0.44400
N811        N  0.21453658  0.46294557  0.89999099    -0.41800
N812        N  0.29120239  0.62584307  0.85097485    -0.43200
H813        H  0.30552632  0.57226695  0.86453522     0.13000
H814        H  0.20047189  0.51592609  0.88428241     0.09400
H815        H  0.19838600  0.56074535  0.84274083     0.10500
H816        H  0.21848280  0.61681953  0.91663188     0.16300
C817        C  0.96444175  0.36412768  0.09487596    -0.01900
C818        C  0.98405377  0.37932693  0.11337432     0.06700
C819        C  0.97422131  0.38724774  0.13312106    -0.07800
C820        C  0.94590524  0.38159720  0.13418102     0.04200
C821        C  0.92692314  0.36832838  0.11494098    -0.15100
C822        C  0.93608477  0.35873498  0.09578367    -0.08400
C823        C  0.01573432  0.39088951  0.11141429     0.05100
C824        C  0.03130896  0.41092372  0.09348181    -0.09500
C825        C  0.06163081  0.42807220  0.09409241     0.00100
C826        C  0.07693653  0.42557791  0.11308932     0.00000
C827        C  0.06164511  0.40350975  0.12974060    -0.13100
C828        C  0.03117722  0.38618008  0.12903134     0.00400
C829        C  0.07650271  0.44866096  0.07531406     0.39700
C830        C  0.01611681  0.36445040  0.14699039     0.36300
C831        C  0.97299343  0.35394277  0.07485274     0.36100
C832        C  0.93668222  0.38902249  0.15547600     0.36800
N833        N  0.08833231  0.46498717  0.06016273    -0.44000
N834        N  0.00398888  0.34696254  0.16133554    -0.44400
N835        N  0.92919807  0.39471747  0.17260283    -0.41800
N836        N  0.97983455  0.34565788  0.05886635    -0.43200
H837        H  0.92139792  0.34782636  0.08120501     0.13000
H838        H  0.98905881  0.39879737  0.14748585     0.09400
H839        H  0.01969346  0.41452053  0.07973896     0.10500
H840        H  0.07327476  0.40112106  0.14417280     0.16300
C841        C  0.37110256  0.04105563  0.10762091    -0.01900
C842        C  0.37836888  0.01989008  0.10328991     0.06700
C843        C  0.40736706  0.02914558  0.09851172    -0.07800
C844        C  0.42925802  0.05840493  0.09944044     0.04200
C845        C  0.42260747  0.07958119  0.10575451    -0.15100
C846        C  0.39326196  0.07072742  0.10892571    -0.08400
C847        C  0.35757502  0.98781038  0.10497757     0.05100
C848        C  0.35666123  0.97060093  0.08607949    -0.09500
C849        C  0.34807333  0.94151860  0.08945413     0.00100
C850        C  0.33888633  0.92870221  0.11182347     0.00000
C851        C  0.33618513  0.94467129  0.12998883    -0.13100
C852        C  0.34574199  0.97418691  0.12682793     0.00400
C853        C  0.35144515  0.92600197  0.07027738     0.39700
C854        C  0.34628463  0.99069652  0.14696806     0.36300
C855        C  0.34127590  0.03287430  0.11072511     0.36100
C856        C  0.45835275  0.06560383  0.09383585     0.36800
N857        N  0.35432199  0.91356430  0.05502992    -0.44000
N858        N  0.34665326  0.00395862  0.16307471    -0.44400
N859        N  0.48127827  0.07035289  0.08919683    -0.41800
N860        N  0.31734897  0.02635310  0.11316133    -0.43200
H861        H  0.38775373  0.08676556  0.11331767     0.13000
H862        H  0.41318061  0.01315461  0.09474598     0.09400
H863        H  0.36571855  0.98079588  0.06925574     0.10500
H864        H  0.32940872  0.93498579  0.14728632     0.16300
C865        C  0.70856588  0.26468872  0.15143076    -0.01900
C866        C  0.68830476  0.24832154  0.13372377     0.06700
C867        C  0.69802533  0.24768947  0.11107692    -0.07800
C868        C  0.72740782  0.26491173  0.10535468     0.04200
C869        C  0.74761746  0.28290715  0.12263091    -0.15100
C870        C  0.73820512  0.28168444  0.14583126    -0.08400
C871        C  0.65679877  0.23534928  0.13690429     0.05100
C872        C  0.64584965  0.25350307  0.13388058    -0.09500
C873        C  0.61616884  0.24185863  0.13034476     0.00100
C874        C  0.59678104  0.21125786  0.13008951     0.00000
C875        C  0.60773692  0.19332105  0.13529307    -0.13100
C876        C  0.63754361  0.20510598  0.13830226     0.00400
C877        C  0.60680785  0.26197760  0.12585155     0.39700
C878        C  0.64810440  0.18576201  0.14144341     0.36300
C879        C  0.69922823  0.26514388  0.17508574     0.36100
C880        C  0.73607007  0.26436922  0.08144139     0.36800
N881        N  0.59945517  0.27817791  0.12210049    -0.44000
N882        N  0.65657850  0.17025727  0.14392204    -0.44400
N883        N  0.74275459  0.26386972  0.06222006    -0.41800
N884        N  0.69169050  0.26539380  0.19406527    -0.43200
H885        H  0.75370237  0.29536131  0.15918647     0.13000
H886        H  0.68235437  0.23495252  0.09749165     0.09400
H887        H  0.66085077  0.27684778  0.13269430     0.10500
H888        H  0.59331670  0.16986634  0.13547796     0.16300
C889        C  0.97195197  0.63699181  0.91007873    -0.01900
C890        C  0.99044267  0.63991576  0.89127345     0.06700
C891        C  0.97798105  0.62690896  0.86965361    -0.07800
C892        C  0.94792470  0.60904394  0.86721231     0.04200
C893        C  0.92965317  0.60316921  0.88682727    -0.15100
C894        C  0.94167352  0.61851111  0.90777877    -0.08400
C895        C  0.02208561  0.65175753  0.89454933     0.05100
C896        C  0.03042868  0.63875149  0.91154839    -0.09500
C897        C  0.05876937  0.64431068  0.91221483     0.00100
C898        C  0.07953387  0.66328927  0.89558037     0.00000
C899        C  0.07175563  0.67778486  0.87956977    -0.13100
C900        C  0.04329508  0.67202371  0.87879501     0.00400
C901        C  0.06578914  0.62992549  0.92998066     0.39700
C902        C  0.03611159  0.68627918  0.86105636     0.36300
C903        C  0.98365074  0.65177648  0.93211971     0.36100
C904        C  0.93640273  0.59555356  0.84467291     0.36800
N905        N  0.07140833  0.61840988  0.94421906    -0.44000
N906        N  0.03029829  0.69748840  0.84668705    -0.44400
N907        N  0.92721965  0.58482826  0.82660376    -0.41800
N908        N  0.99306263  0.66373387  0.94975329    -0.43200
H909        H  0.92772886  0.61437302  0.92284150     0.13000
H910        H  0.99179684  0.62896897  0.85502230     0.09400
H911        H  0.01431256  0.62291288  0.92357909     0.10500
H912        H  0.08752170  0.69249663  0.86677188     0.16300
C913        C  0.90844594  0.51053104  0.98856864    -0.01900
C914        C  0.90348900  0.48241947  0.99203682     0.06700
C915        C  0.89468759  0.46313987  0.97296565    -0.07800
C916        C  0.88737681  0.47017679  0.95151856     0.04200
C917        C  0.88932284  0.49703661  0.94893849    -0.15100
C918        C  0.90130204  0.51765269  0.96702420    -0.08400
C919        C  0.89902310  0.46983869  0.01589418     0.05100
C920        C  0.87539347  0.46665976  0.02870970    -0.09500
C921        C  0.86518607  0.44907374  0.04859885     0.00100
C922        C  0.87886509  0.43432716  0.05615605     0.00000
C923        C  0.90394996  0.43925440  0.04447384    -0.13100
C924        C  0.91394502  0.45669398  0.02423613     0.00400
C925        C  0.84011169  0.44596895  0.06055481     0.39700
C926        C  0.93893984  0.46020292  0.01196181     0.36300
C927        C  0.91866002  0.53145111  0.00746790     0.36100
C928        C  0.87561495  0.44861932  0.93305457     0.36800
N929        N  0.81997702  0.44345502  0.07003041    -0.44000
N930        N  0.95905190  0.46309025  0.00217312    -0.44400
N931        N  0.86617826  0.43137456  0.91824802    -0.41800
N932        N  0.92686929  0.54819117  0.02264043    -0.43200
H933        H  0.90290154  0.53839082  0.96497474     0.13000
H934        H  0.89068593  0.44144794  0.97553344     0.09400
H935        H  0.86372519  0.47658533  0.02231003     0.10500
H936        H  0.91471310  0.42820334  0.05034512     0.16300
C937        C  0.65785235  0.05372762  0.91093247    -0.01900
C938        C  0.64113400  0.03242442  0.89382558     0.06700
C939        C  0.63409834  0.04106144  0.87299356    -0.07800
C940        C  0.64159168  0.06978919  0.86965791     0.04200
C941        C  0.65628978  0.09073879  0.88751385    -0.15100
C942        C  0.66542156  0.08270356  0.90763533    -0.08400
C943        C  0.62675718  0.00059411  0.89832781     0.05100
C944        C  0.60556875  0.98834360  0.91600375    -0.09500
C945        C  0.58585706  0.95826722  0.91709311     0.00100
C946        C  0.58704007  0.93969605  0.90019066     0.00000
C947        C  0.61002540  0.95166435  0.88393218    -0.13100
C948        C  0.62973110  0.98188754  0.88282460     0.00400
C949        C  0.56409185  0.94717235  0.93538176     0.39700
C950        C  0.65208461  0.99338229  0.86503008     0.36300
C951        C  0.66704590  0.04618819  0.93207362     0.36100
C952        C  0.63365349  0.07695263  0.84767114     0.36800
N953        N  0.54683932  0.93846343  0.95017315    -0.44000
N954        N  0.67005588  0.00263205  0.85079855    -0.44400
N955        N  0.62719338  0.08219642  0.82987030    -0.41800
N956        N  0.67454488  0.04013603  0.94896202    -0.43200
H957        H  0.67716661  0.09866179  0.92129338     0.13000
H958        H  0.62138552  0.02492000  0.85968051     0.09400
H959        H  0.60315511  0.00248246  0.92806249     0.10500
H960        H  0.61137961  0.93768221  0.87099901     0.16300
C961        C  0.57829134  0.10976390  0.98210110    -0.01900
C962        C  0.56116135  0.12115280  0.98893556     0.06700
C963        C  0.55780077  0.13927578  0.97349462    -0.07800
C964        C  0.57302150  0.14812067  0.95234347     0.04200
C965        C  0.59128392  0.13789547  0.94585909    -0.15100
C966        C  0.59280331  0.11776847  0.96037897    -0.08400
C967        C  0.55141222  0.12001047  0.01342224     0.05100
C968        C  0.57270778  0.13764937  0.02992501    -0.09500
C969        C  0.56511401  0.14569680  0.05075868     0.00100
C970        C  0.53570888  0.13556910  0.05547444     0.00000
C971        C  0.51413883  0.11562584  0.04011381    -0.13100
C972        C  0.52181870  0.10799645  0.01900225     0.00400
C973        C  0.58797219  0.16533876  0.06655585     0.39700
C974        C  0.49921594  0.08920468  0.00270610     0.36300
C975        C  0.58233927  0.09107095  0.99755708     0.36100
C976        C  0.57077258  0.16913400  0.93842472     0.36800
N977        N  0.60640835  0.18108471  0.07911860    -0.44000
N978        N  0.48110051  0.07410304  0.98964493    -0.44400
N979        N  0.56888463  0.18628973  0.92782304    -0.41800
N980        N  0.58563208  0.07610580  0.00995372    -0.43200
H981        H  0.60695878  0.11000108  0.95557191     0.13000
H982        H  0.54499237  0.14842047  0.97886162     0.09400
H983        H  0.59549785  0.14710046  0.02564225     0.10500
H984        H  0.49147507  0.10760483  0.04383029     0.16300
C985        C  0.77589504  0.23575136  0.96716018    -0.01900
C986        C  0.76623954  0.23851133  0.98944428     0.06700
C987        C  0.73629245  0.22466398  0.99362642    -0.07800
C988        C  0.71605856  0.20989433  0.97565656     0.04200
C989        C  0.72572669  0.20885873  0.95268785    -0.15100
C990        C  0.75572663  0.22095914  0.94907233    -0.08400
C991        C  0.78657469  0.25844227  0.00783573     0.05100
C992        C  0.80118732  0.28851638  0.00390978    -0.09500
C993        C  0.81535608  0.30837235  0.02226914     0.00100
C994        C  0.81486324  0.29815206  0.04530154     0.00000
C995        C  0.80270666  0.26808212  0.04856208    -0.13100
C996        C  0.78849368  0.24829260  0.03012643     0.00400
C997        C  0.82930691  0.33900450  0.01698628     0.39700
C998        C  0.77516636  0.21758570  0.03462151     0.36300
C999        C  0.80643316  0.24835228  0.96240790     0.36100
C1000       C  0.68563535  0.19685713  0.98133337     0.36800
N1001       N  0.84046491  0.36354526  0.01277441    -0.44000
N1002       N  0.76456479  0.19295826  0.03815126    -0.44400
N1003       N  0.66129291  0.18651495  0.98592188    -0.41800
N1004       N  0.83091673  0.25832402  0.95866102    -0.43200
H1005       H  0.76368651  0.22022971  0.93176011     0.13000
H1006       H  0.72872890  0.22656361  0.01080101     0.09400
H1007       H  0.80013882  0.29648352  0.98669416     0.10500
H1008       H  0.80248725  0.25972829  0.06590739     0.16300
C1009       C  0.77174679  0.37243577  0.89077795    -0.01900
C1010       C  0.78338499  0.36267270  0.87356539     0.06700
C1011       C  0.80662778  0.38296398  0.85960866    -0.07800
C1012       C  0.81897296  0.41293081  0.86317994     0.04200
C1013       C  0.80789487  0.42274729  0.88104141    -0.15100
C1014       C  0.78397176  0.40214915  0.89435741    -0.08400
C1015       C  0.77169030  0.33119217  0.87099785     0.05100
C1016       C  0.75010909  0.31529642  0.85413386    -0.09500
C1017       C  0.73260471  0.28490405  0.85565547     0.00100
C1018       C  0.73670798  0.27040737  0.87435110     0.00000
C1019       C  0.75985565  0.28609202  0.88994762    -0.13100
C1020       C  0.77752069  0.31631224  0.88828108     0.00400
C1021       C  0.70909563  0.26933637  0.83916098     0.39700
C1022       C  0.80002723  0.33186232  0.90559747     0.36300
C1023       C  0.74742234  0.35221885  0.90523812     0.36100
C1024       C  0.84240149  0.43297016  0.84796186     0.36800
N1025       N  0.69022425  0.25682716  0.82596189    -0.44000
N1026       N  0.81805726  0.34435847  0.91946333    -0.44400
N1027       N  0.86109247  0.44904115  0.83569878    -0.41800
N1028       N  0.72797401  0.33592075  0.91678297    -0.43200
H1029       H  0.77514588  0.40922296  0.90809388     0.13000
H1030       H  0.81532132  0.37538494  0.84617336     0.09400
H1031       H  0.74554446  0.32674615  0.84089283     0.10500
H1032       H  0.76299194  0.27486928  0.90433032     0.16300
C1033       C  0.38474378  0.35858703  0.91613684    -0.01900
C1034       C  0.37914342  0.37206389  0.89736335     0.06700
C1035       C  0.39224966  0.37439200  0.87552316    -0.07800
C1036       C  0.41224607  0.36567984  0.87266231     0.04200
C1037       C  0.41985994  0.35466998  0.89197111    -0.15100
C1038       C  0.40498901  0.34996600  0.91331816    -0.08400
C1039       C  0.36393057  0.38819359  0.90076474     0.05100
C1040       C  0.37594991  0.41147264  0.91668535    -0.09500
C1041       C  0.36740350  0.43179489  0.91672613     0.00100
C1042       C  0.34649762  0.42927501  0.90040838     0.00000
C1043       C  0.33249627  0.40452133  0.88594749    -0.13100
C1044       C  0.34109286  0.38408127  0.88597944     0.00400
C1045       C  0.38111776  0.45551299  0.93333363     0.39700
C1046       C  0.32684475  0.35953882  0.87022121     0.36300
C1047       C  0.37045242  0.35402836  0.93853793     0.36100
C1048       C  0.42507400  0.36868167  0.84975472     0.36800
N1049       N  0.39217274  0.47445783  0.94667440    -0.44000
N1050       N  0.31541901  0.33980814  0.85763615    -0.44400
N1051       N  0.43532687  0.37091537  0.83142894    -0.41800
N1052       N  0.35888415  0.35029275  0.95645722    -0.43200
H1053       H  0.41033475  0.34107720  0.92814139     0.13000
H1054       H  0.38808385  0.38456301  0.86092925     0.09400
H1055       H  0.39340857  0.41483725  0.92820169     0.10500
H1056       H  0.31612693  0.40205833  0.87358599     0.16300
C1057       C  0.45008516  0.23389987  0.03908472    -0.01900
C1058       C  0.45913090  0.23451426  0.01575971     0.06700
C1059       C  0.47081353  0.21754296  0.00966489    -0.07800
C1060       C  0.47476598  0.20112819  0.02653328     0.04200
C1061       C  0.46699385  0.20154053  0.05018406    -0.15100
C1062       C  0.45382250  0.21732207  0.05597766    -0.08400
C1063       C  0.45881718  0.25419282  0.99768611     0.05100
C1064       C  0.47602113  0.28440709  0.00107706    -0.09500
C1065       C  0.48084495  0.30373890  0.98273570     0.00100
C1066       C  0.46861151  0.29277160  0.96030574     0.00000
C1067       C  0.44923907  0.26259787  0.95772590    -0.13100
C1068       C  0.44437931  0.24338742  0.97609255     0.00400
C1069       C  0.49906065  0.33456169  0.98735482     0.39700
C1070       C  0.42531233  0.21255410  0.97209632     0.36300
C1071       C  0.43753586  0.25059352  0.04620536     0.36100
C1072       C  0.48735807  0.18456765  0.01909408     0.36800
N1073       N  0.51359592  0.35925390  0.99106289    -0.44000
N1074       N  0.41008421  0.18783338  0.96891062    -0.44400
N1075       N  0.49748973  0.17133480  0.01314752    -0.41800
N1076       N  0.42756201  0.26403965  0.05194404    -0.43200
H1077       H  0.44787862  0.21808202  0.07404155     0.13000
H1078       H  0.47787727  0.21796207  0.99174916     0.09400
H1079       H  0.48692052  0.29290065  0.01775597     0.10500
H1080       H  0.43921133  0.25367152  0.94084975     0.16300
C1081       C  0.70997797  0.47218298  0.85214203    -0.01900
C1082       C  0.68931305  0.46458911  0.87017714     0.06700
C1083       C  0.69874063  0.47202199  0.89342081    -0.07800
C1084       C  0.72815422  0.48576412  0.89910899     0.04200
C1085       C  0.74901069  0.49272100  0.88122711    -0.15100
C1086       C  0.73970711  0.48651579  0.85773574    -0.08400
C1087       C  0.65750922  0.44699200  0.86608669     0.05100
C1088       C  0.64413831  0.41681267  0.86339663    -0.09500
C1089       C  0.61400468  0.39831174  0.86617583     0.00100
C1090       C  0.59677812  0.41014278  0.87166680     0.00000
C1091       C  0.60996920  0.44055666  0.87190568    -0.13100
C1092       C  0.64009819  0.45894123  0.86947630     0.00400
C1093       C  0.60155014  0.36733529  0.86397889     0.39700
C1094       C  0.65290699  0.48991647  0.87201629     0.36300
C1095       C  0.70108926  0.46512453  0.82795778     0.36100
C1096       C  0.73622863  0.49218107  0.92354538     0.36800
N1097       N  0.59157238  0.34251674  0.86220913    -0.44000
N1098       N  0.66314582  0.51473242  0.87411115    -0.44400
N1099       N  0.74277960  0.49711041  0.94310932    -0.41800
N1100       N  0.69394912  0.45946671  0.80856013    -0.43200
H1101       H  0.75549821  0.49174477  0.84388958     0.13000
H1102       H  0.68285109  0.46620858  0.90731443     0.09400
H1103       H  0.65749500  0.40757127  0.86067071     0.10500
H1104       H  0.59707845  0.45005242  0.87578849     0.16300
C1105       C  0.53202971  0.25121994  0.85676915    -0.01900
C1106       C  0.54158704  0.24126060  0.87544977     0.06700
C1107       C  0.53651376  0.24613954  0.89859703    -0.07800
C1108       C  0.52408893  0.26261479  0.90339824     0.04200
C1109       C  0.51654365  0.27466465  0.88471933    -0.15100
C1110       C  0.51940222  0.26770764  0.86149794    -0.08400
C1111       C  0.56037200  0.22926155  0.87169387     0.05100
C1112       C  0.59035788  0.24892355  0.86962161    -0.09500
C1113       C  0.60992512  0.23945400  0.87083909     0.00100
C1114       C  0.59940892  0.20945498  0.87364828     0.00000
C1115       C  0.56910034  0.18961469  0.87380380    -0.13100
C1116       C  0.54966142  0.19933734  0.87348498     0.00400
C1117       C  0.64056376  0.26132590  0.87018719     0.39700
C1118       C  0.51901619  0.17847888  0.87656636     0.36300
C1119       C  0.53592357  0.24555946  0.83271710     0.36100
C1120       C  0.51998506  0.26735742  0.92771888     0.36800
N1121       N  0.66504076  0.27912964  0.86990110    -0.44000
N1122       N  0.49448066  0.16176248  0.87923674    -0.44400
N1123       N  0.51682656  0.27116983  0.94721016    -0.41800
N1124       N  0.53896699  0.24084083  0.81345119    -0.43200
H1125       H  0.51341040  0.27656369  0.84706140     0.13000
H1126       H  0.54357364  0.23818609  0.91298374     0.09400
H1127       H  0.59858931  0.27202104  0.86840499     0.10500
H1128       H  0.56050330  0.16656952  0.87604718     0.16300
C1129       C  0.61901305  0.60964719  0.13212910    -0.01900
C1130       C  0.62859715  0.63010331  0.11373773     0.06700
C1131       C  0.64855011  0.63115356  0.09728928    -0.07800
C1132       C  0.65839800  0.61169452  0.09869871     0.04200
C1133       C  0.64820490  0.59072877  0.11687237    -0.15100
C1134       C  0.62894674  0.59050942  0.13363614    -0.08400
C1135       C  0.61560668  0.64833656  0.11065901     0.05100
C1136       C  0.62068514  0.66931246  0.12773356    -0.09500
C1137       C  0.60331101  0.68151282  0.12893014     0.00100
C1138       C  0.58039595  0.67275292  0.11272459     0.00000
C1139       C  0.57706640  0.65365839  0.09447357    -0.13100
C1140       C  0.59431854  0.64142471  0.09335473     0.00400
C1141       C  0.60749791  0.70047359  0.14838930     0.39700
C1142       C  0.58793332  0.61979775  0.07557038     0.36300
C1143       C  0.59745999  0.60660547  0.14885205     0.36100
C1144       C  0.67736481  0.61249015  0.08047966     0.36800
N1145       N  0.61074952  0.71558508  0.16403019    -0.44000
N1146       N  0.58275455  0.60241624  0.06134993    -0.44400
N1147       N  0.69250681  0.61303295  0.06584522    -0.41800
N1148       N  0.58007863  0.60415112  0.16211497    -0.43200
H1149       H  0.62078716  0.57459420  0.14769570     0.13000
H1150       H  0.65570636  0.64657876  0.08292150     0.09400
H1151       H  0.63691225  0.67458891  0.14117369     0.10500
H1152       H  0.55959942  0.64675939  0.08188366     0.16300
C1153       C  0.73210836  0.54710967  0.00689944    -0.01900
C1154       C  0.76243022  0.56217352  0.01057598     0.06700
C1155       C  0.77338673  0.57497206  0.03258249    -0.07800
C1156       C  0.75468152  0.57111081  0.05128361     0.04200
C1157       C  0.72407931  0.55389513  0.04819326    -0.15100
C1158       C  0.71336676  0.54314025  0.02553971    -0.08400
C1159       C  0.78250789  0.56227262  0.99242264     0.05100
C1160       C  0.78546476  0.57555532  0.97056468    -0.09500
C1161       C  0.80083308  0.57240802  0.95203658     0.00100
C1162       C  0.81342287  0.55529620  0.95512638     0.00000
C1163       C  0.81218931  0.54393674  0.97761762    -0.13100
C1164       C  0.79703553  0.54726662  0.99607894     0.00400
C1165       C  0.80214165  0.58603933  0.92990889     0.39700
C1166       C  0.79551618  0.53361339  0.01823816     0.36300
C1167       C  0.71947536  0.53383039  0.98456108     0.36100
C1168       C  0.76774694  0.58359875  0.07369973     0.36800
N1169       N  0.80324828  0.59706616  0.91220440    -0.44000
N1170       N  0.79477209  0.52271666  0.03591100    -0.44400
N1171       N  0.77831278  0.59364910  0.09164030    -0.41800
N1172       N  0.70921506  0.52324554  0.96667615    -0.43200
H1173       H  0.69009648  0.53018837  0.02258905     0.13000
H1174       H  0.79668917  0.58699691  0.03544266     0.09400
H1175       H  0.77487612  0.58763620  0.96773678     0.10500
H1176       H  0.82197249  0.53113103  0.98062328     0.16300
C1177       C  0.57952119  0.49716427  0.01769524    -0.01900
C1178       C  0.55896249  0.46770627  0.01266679     0.06700
C1179       C  0.55022877  0.44692262  0.03057037    -0.07800
C1180       C  0.56388187  0.45461331  0.05247643     0.04200
C1181       C  0.58641407  0.48354974  0.05670823    -0.15100
C1182       C  0.59309014  0.50491793  0.03972019    -0.08400
C1183       C  0.55131629  0.45698486  0.98819535     0.05100
C1184       C  0.57336893  0.45855119  0.97411578    -0.09500
C1185       C  0.56675353  0.44294563  0.95313834     0.00100
C1186       C  0.53754001  0.42561654  0.94576707     0.00000
C1187       C  0.51570020  0.42594901  0.95883159    -0.13100
C1188       C  0.52236079  0.44124105  0.98012945     0.00400
C1189       C  0.59027240  0.44423607  0.93998112     0.39700
C1190       C  0.49913834  0.43960703  0.99387900     0.36300
C1191       C  0.58818771  0.51937276  0.00003482     0.36100
C1192       C  0.55596195  0.43211457  0.06978630     0.36800
N1193       N  0.60918042  0.44525706  0.92958551    -0.44000
N1194       N  0.48053394  0.43833967  0.00491463    -0.44400
N1195       N  0.54959030  0.41411833  0.08367408    -0.41800
N1196       N  0.59502758  0.53715434  0.98586601    -0.43200
H1197       H  0.61050751  0.52717832  0.04294722     0.13000
H1198       H  0.53450385  0.42422993  0.02678897     0.09400
H1199       H  0.59566235  0.47053007  0.98029652     0.10500
H1200       H  0.49323148  0.41269230  0.95325254     0.16300
C1201       C  0.58859082  0.36571169  0.11286486    -0.01900
C1202       C  0.56412967  0.35329105  0.12775372     0.06700
C1203       C  0.55781618  0.37149022  0.14047694    -0.07800
C1204       C  0.57509258  0.40185534  0.13801359     0.04200
C1205       C  0.59929504  0.41441743  0.12255272    -0.15100
C1206       C  0.60593293  0.39591311  0.11047928    -0.08400
C1207       C  0.54440504  0.32125564  0.12910290     0.05100
C1208       C  0.54836501  0.30577447  0.14696150    -0.09500
C1209       C  0.53443091  0.27534168  0.14582747     0.00100
C1210       C  0.51613411  0.26021606  0.12669071     0.00000
C1211       C  0.51064863  0.27558566  0.10979469    -0.13100
C1212       C  0.52458805  0.30586318  0.11083871     0.00400
C1213       C  0.54133666  0.26042512  0.16313951     0.39700
C1214       C  0.51989416  0.32085407  0.09204715     0.36300
C1215       C  0.59590263  0.34776493  0.09940791     0.36100
C1216       C  0.56743512  0.41940218  0.15162347     0.36800
N1217       N  0.54691065  0.24841800  0.17694385    -0.44000
N1218       N  0.51619922  0.33282280  0.07692182    -0.44400
N1219       N  0.56129400  0.43346675  0.16253466    -0.41800
N1220       N  0.60165911  0.33334628  0.08858304    -0.43200
H1221       H  0.62425478  0.40495156  0.09849305     0.13000
H1222       H  0.53904052  0.36191253  0.15200925     0.09400
H1223       H  0.56379253  0.31760483  0.16091050     0.10500
H1224       H  0.49695655  0.26404993  0.09483450     0.16300
C1225       C  0.80591926  0.46258491  0.13562497    -0.01900
C1226       C  0.77572431  0.45025275  0.13378840     0.06700
C1227       C  0.75764023  0.42016649  0.13052981    -0.07800
C1228       C  0.76926976  0.40256202  0.12740697     0.04200
C1229       C  0.79985367  0.41520891  0.12727720    -0.15100
C1230       C  0.81772705  0.44509377  0.13249418    -0.08400
C1231       C  0.76300186  0.46851502  0.13041084     0.05100
C1232       C  0.75946737  0.47478029  0.10728908    -0.09500
C1233       C  0.74407151  0.48825857  0.10231093     0.00100
C1234       C  0.73195505  0.49611234  0.12079937     0.00000
C1235       C  0.73714732  0.49155850  0.14412625    -0.13100
C1236       C  0.75232617  0.47754674  0.14902888     0.00400
C1237       C  0.74008220  0.49270142  0.07792386     0.39700
C1238       C  0.75559971  0.47153536  0.17310783     0.36300
C1239       C  0.82523343  0.49339872  0.13945477     0.36100
C1240       C  0.74912645  0.37184078  0.12360745     0.36800
N1241       N  0.73626166  0.49591335  0.05847308    -0.44000
N1242       N  0.75816260  0.46672014  0.19244568    -0.44400
N1243       N  0.73292956  0.34724715  0.12053796    -0.41800
N1244       N  0.84066412  0.51810088  0.14259790    -0.43200
H1245       H  0.84114204  0.45524869  0.13289400     0.13000
H1246       H  0.73434393  0.41063202  0.12916194     0.09400
H1247       H  0.76782619  0.46799651  0.09295593     0.10500
H1248       H  0.72792791  0.49737063  0.15844364     0.16300
C1249       C  0.68847868  0.15912164  0.72432247    -0.01900
C1250       C  0.66338782  0.15374197  0.73669524     0.06700
C1251       C  0.63836076  0.14653755  0.72374568    -0.07800
C1252       C  0.63776131  0.14407485  0.69926473     0.04200
C1253       C  0.66344032  0.15147186  0.68689011    -0.15100
C1254       C  0.68851596  0.15875262  0.69971310    -0.08400
C1255       C  0.66285668  0.15606659  0.76290507     0.05100
C1256       C  0.68573614  0.18055654  0.77432291    -0.09500
C1257       C  0.68627838  0.18331902  0.79882312     0.00100
C1258       C  0.66255068  0.16240963  0.81230915     0.00000
C1259       C  0.63902523  0.13877006  0.80092868    -0.13100
C1260       C  0.63948370  0.13476246  0.77668298     0.00400
C1261       C  0.71117736  0.20809192  0.80954831     0.39700
C1262       C  0.61632305  0.10789646  0.76672171     0.36300
C1263       C  0.71426871  0.16430496  0.73632404     0.36100
C1264       C  0.61045905  0.13411070  0.68750131     0.36800
N1265       N  0.73140318  0.22791205  0.81791517    -0.44000
N1266       N  0.59776425  0.08632343  0.75880376    -0.44400
N1267       N  0.58840994  0.12577966  0.67825256    -0.41800
N1268       N  0.73497916  0.16848111  0.74588685    -0.43200
H1269       H  0.70814371  0.16369385  0.69046058     0.13000
H1270       H  0.61904975  0.14284077  0.73276971     0.09400
H1271       H  0.70338475  0.19762675  0.76409559     0.10500
H1272       H  0.62061151  0.12274501  0.81117898     0.16300
C1273       C  0.86111702  0.33856117  0.22213840    -0.01900
C1274       C  0.85246265  0.35390859  0.23648773     0.06700
C1275       C  0.84249516  0.37052733  0.22613138    -0.07800
C1276       C  0.84098945  0.37201707  0.20168065     0.04200
C1277       C  0.85032637  0.35717733  0.18714772    -0.15100
C1278       C  0.86012266  0.34038834  0.19769536    -0.08400
C1279       C  0.85283227  0.35220453  0.26239567     0.05100
C1280       C  0.87443772  0.37603559  0.27502552    -0.09500
C1281       C  0.87538446  0.37530910  0.29958430     0.00100
C1282       C  0.85433636  0.35008253  0.31194114     0.00000
C1283       C  0.83275914  0.32625605  0.29900736    -0.13100
C1284       C  0.83173164  0.32726120  0.27451825     0.00400
C1285       C  0.89822264  0.40082576  0.31137599     0.39700
C1286       C  0.80825147  0.30286412  0.26217253     0.36300
C1287       C  0.87111716  0.32085753  0.23216696     0.36100
C1288       C  0.82842626  0.38771208  0.19214310     0.36800
N1289       N  0.91647320  0.42136823  0.32075698    -0.44000
N1290       N  0.78940202  0.28344506  0.25219003    -0.44400
N1291       N  0.81814752  0.40008651  0.18451802    -0.41800
N1292       N  0.87895440  0.30654672  0.24026224    -0.43200
H1293       H  0.86731014  0.32885584  0.18683777     0.13000
H1294       H  0.83529619  0.38186271  0.23723117     0.09400
H1295       H  0.89058636  0.39529579  0.26561884     0.10500
H1296       H  0.81607208  0.30696703  0.30804335     0.16300
C1297       C  0.75815220  0.24137176  0.47068980    -0.01900
C1298       C  0.77731176  0.24015111  0.48672800     0.06700
C1299       C  0.80700895  0.25411279  0.48091979    -0.07800
C1300       C  0.81784546  0.27029430  0.46000906     0.04200
C1301       C  0.79875277  0.27269259  0.44464475    -0.15100
C1302       C  0.76890623  0.25729560  0.44993943    -0.08400
C1303       C  0.76673354  0.22713048  0.51047573     0.05100
C1304       C  0.74530252  0.19737482  0.51248574    -0.09500
C1305       C  0.72992318  0.18591167  0.53358606     0.00100
C1306       C  0.73602271  0.20435874  0.55305546     0.00000
C1307       C  0.75868872  0.23355807  0.55152057    -0.13100
C1308       C  0.77416226  0.24499866  0.53056674     0.00400
C1309       C  0.70626961  0.15591742  0.53424384     0.39700
C1310       C  0.79596881  0.27566419  0.52968161     0.36300
C1311       C  0.72761924  0.22836586  0.47592396     0.36100
C1312       C  0.84873071  0.28588743  0.45563324     0.36800
N1313       N  0.68722936  0.13191542  0.53486518    -0.44000
N1314       N  0.81348127  0.30023834  0.52915259    -0.44400
N1315       N  0.87350251  0.29842660  0.45211652    -0.41800
N1316       N  0.70318996  0.21806570  0.48012810    -0.43200
H1317       H  0.75393944  0.25880318  0.43824289     0.13000
H1318       H  0.82188316  0.25336321  0.49320205     0.09400
H1319       H  0.73933636  0.18352527  0.49711474     0.10500
H1320       H  0.76328664  0.24786153  0.56641368     0.16300
C1321       C  0.86975805  0.55954479  0.72597213    -0.01900
C1322       C  0.86108709  0.53455719  0.73975888     0.06700
C1323       C  0.84940112  0.50749883  0.72859204    -0.07800
C1324       C  0.84612119  0.50496117  0.70420355     0.04200
C1325       C  0.85435952  0.52984499  0.69052493    -0.15100
C1326       C  0.86597235  0.55687825  0.70159971    -0.08400
C1327       C  0.86155756  0.53551874  0.76586310     0.05100
C1328       C  0.84585348  0.54582220  0.77751485    -0.09500
C1329       C  0.84337732  0.54471166  0.80200902     0.00100
C1330       C  0.85629156  0.53244228  0.81536802     0.00000
C1331       C  0.87231826  0.52245223  0.80367636    -0.13100
C1332       C  0.87531291  0.52419127  0.77921577     0.00400
C1333       C  0.82651886  0.55531650  0.81275723     0.39700
C1334       C  0.89304468  0.51472483  0.76826623     0.36300
C1335       C  0.88283263  0.58809877  0.73637862     0.36100
C1336       C  0.83238502  0.47632609  0.69387539     0.36800
N1337       N  0.81306399  0.56390533  0.82133559    -0.44000
N1338       N  0.90730448  0.50719031  0.75951583    -0.44400
N1339       N  0.82107862  0.45319670  0.68590458    -0.41800
N1340       N  0.89332382  0.61101872  0.74465809    -0.43200
H1341       H  0.87221683  0.57615417  0.69105416     0.13000
H1342       H  0.84193556  0.48800377  0.73912046     0.09400
H1343       H  0.83484319  0.55416134  0.76734841     0.10500
H1344       H  0.88296798  0.51363772  0.81371500     0.16300
C1345       C  0.88204217  0.45962709  0.53280320    -0.01900
C1346       C  0.86904355  0.45711726  0.51088456     0.06700
C1347       C  0.85032696  0.46748715  0.50810642    -0.07800
C1348       C  0.84315008  0.47887458  0.52713667     0.04200
C1349       C  0.85486319  0.47989637  0.54962289    -0.15100
C1350       C  0.87506929  0.47110212  0.55186899    -0.08400
C1351       C  0.87161373  0.44064032  0.49132695     0.05100
C1352       C  0.85965672  0.41069298  0.49423111    -0.09500
C1353       C  0.85570539  0.39298617  0.47496100     0.00100
C1354       C  0.86310773  0.40527447  0.45224025     0.00000
C1355       C  0.87792237  0.43568443  0.44981001    -0.13100
C1356       C  0.88220672  0.45339072  0.46917251     0.00400
C1357       C  0.84364657  0.36233625  0.47897126     0.39700
C1358       C  0.89667316  0.48444080  0.46584619     0.36300
C1359       C  0.90204373  0.44992046  0.53622095     0.36100
C1360       C  0.82307244  0.48836500  0.52296493     0.36800
N1361       N  0.83414994  0.33779500  0.48208011    -0.44000
N1362       N  0.90840044  0.50934823  0.46324606    -0.44400
N1363       N  0.80695047  0.49589419  0.51954739    -0.41800
N1364       N  0.91801996  0.44206730  0.53890807    -0.43200
H1365       H  0.88469150  0.47206031  0.56879220     0.13000
H1366       H  0.84025553  0.46546428  0.49117256     0.09400
H1367       H  0.85204908  0.40091161  0.51141001     0.10500
H1368       H  0.88452409  0.44556708  0.43257232     0.16300
C1369       C  0.80146336  0.37648406  0.64541881    -0.01900
C1370       C  0.77370975  0.35536122  0.63702145     0.06700
C1371       C  0.75638522  0.36419271  0.62631615    -0.07800
C1372       C  0.76675562  0.39357287  0.62267699     0.04200
C1373       C  0.79537530  0.41499206  0.62965467    -0.15100
C1374       C  0.81213554  0.40612422  0.64167352    -0.08400
C1375       C  0.76239069  0.32378628  0.63749464     0.05100
C1376       C  0.73854739  0.30586759  0.65198663    -0.09500
C1377       C  0.72243231  0.27568672  0.64871776     0.00100
C1378       C  0.73020714  0.26314440  0.63074716     0.00000
C1379       C  0.75536746  0.28080125  0.61749052    -0.13100
C1380       C  0.77133788  0.31101234  0.62055715     0.00400
C1381       C  0.69788353  0.25805807  0.66380413     0.39700
C1382       C  0.79514188  0.32859653  0.60471698     0.36300
C1383       C  0.81922586  0.36815801  0.65777703     0.36100
C1384       C  0.74731511  0.40083732  0.61172407     0.36800
N1385       N  0.67846039  0.24403520  0.67618720    -0.44000
N1386       N  0.81412407  0.34264981  0.59193748    -0.44400
N1387       N  0.73165523  0.40654474  0.60297293    -0.41800
N1388       N  0.83335260  0.36144459  0.66783692    -0.43200
H1389       H  0.83392450  0.42223049  0.64742404     0.13000
H1390       H  0.73482124  0.34789415  0.62018115     0.09400
H1391       H  0.73162871  0.31563843  0.66502125     0.10500
H1392       H  0.76132275  0.27120709  0.60356840     0.16300
C1393       C  0.47925167  0.12894296  0.27722744    -0.01900
C1394       C  0.47528765  0.14789342  0.26311220     0.06700
C1395       C  0.47087020  0.16862395  0.27368576    -0.07800
C1396       C  0.47115421  0.17133324  0.29814560     0.04200
C1397       C  0.47557895  0.15261763  0.31255143    -0.15100
C1398       C  0.47920080  0.13129174  0.30169656    -0.08400
C1399       C  0.47795883  0.14813036  0.23727219     0.05100
C1400       C  0.45281432  0.13332492  0.22349632    -0.09500
C1401       C  0.45466850  0.13453426  0.19893274     0.00100
C1402       C  0.48211790  0.15105010  0.18791404     0.00000
C1403       C  0.50726855  0.16527683  0.20183253    -0.13100
C1404       C  0.50536506  0.16401849  0.22633280     0.00400
C1405       C  0.42828084  0.11776520  0.18548253     0.39700
C1406       C  0.53172550  0.17964108  0.23997891     0.36300
C1407       C  0.48410848  0.10743016  0.26695241     0.36100
C1408       C  0.46830642  0.19448747  0.30764744     0.36800
N1409       N  0.40722511  0.10423546  0.17462234    -0.44000
N1410       N  0.55277513  0.19213590  0.25100082    -0.44400
N1411       N  0.46615050  0.21315670  0.31517427    -0.41800
N1412       N  0.48808048  0.09023065  0.25874219    -0.43200
H1413       H  0.48254786  0.11667057  0.31230278     0.13000
H1414       H  0.46815089  0.18340536  0.26270513     0.09400
H1415       H  0.43175431  0.12085883  0.23197101     0.10500
H1416       H  0.52844423  0.17790577  0.19355172     0.16300
C1417       C  0.55191602  0.15669007  0.48929300    -0.01900
C1418       C  0.55571354  0.13292111  0.48766332     0.06700
C1419       C  0.54615315  0.11523923  0.46768079    -0.07800
C1420       C  0.53405871  0.12182488  0.44877704     0.04200
C1421       C  0.53219362  0.14704013  0.44964691    -0.15100
C1422       C  0.54031388  0.16358046  0.47039208    -0.08400
C1423       C  0.57200884  0.12835185  0.50607249     0.05100
C1424       C  0.55800094  0.11564056  0.52728161    -0.09500
C1425       C  0.57411748  0.11919658  0.54755403     0.00100
C1426       C  0.60490776  0.13608172  0.54660735     0.00000
C1427       C  0.61861063  0.14590125  0.52465650    -0.13100
C1428       C  0.60241299  0.14218936  0.50445870     0.00400
C1429       C  0.55834155  0.10747452  0.56924497     0.39700
C1430       C  0.61753829  0.15499765  0.48269556     0.36300
C1431       C  0.56101278  0.17509318  0.50987452     0.36100
C1432       C  0.52374403  0.10223949  0.42893273     0.36800
N1433       N  0.54561008  0.09802023  0.58658646    -0.44000
N1434       N  0.62957881  0.16523542  0.46523319    -0.44400
N1435       N  0.51533677  0.08644264  0.41310004    -0.41800
N1436       N  0.56829399  0.18970640  0.52642248    -0.43200
H1437       H  0.53869486  0.18269193  0.47162042     0.13000
H1438       H  0.54871098  0.09667857  0.46668703     0.09400
H1439       H  0.53453390  0.10490428  0.52838337     0.10500
H1440       H  0.64215022  0.15818250  0.52348682     0.16300
C1441       C  0.64247631  0.22828207  0.38393583    -0.01900
C1442       C  0.65193857  0.22936899  0.36068708     0.06700
C1443       C  0.63151297  0.21858294  0.34238116    -0.07800
C1444       C  0.60184380  0.20698074  0.34706656     0.04200
C1445       C  0.59256878  0.20675643  0.37036888    -0.15100
C1446       C  0.61319927  0.21724080  0.38852434    -0.08400
C1447       C  0.68349959  0.24405968  0.35578465     0.05100
C1448       C  0.69856162  0.23121969  0.36410940    -0.09500
C1449       C  0.72856341  0.24807987  0.36817752     0.00100
C1450       C  0.74384633  0.27829657  0.36363010     0.00000
C1451       C  0.72923778  0.29029206  0.35274222    -0.13100
C1452       C  0.69927427  0.27342320  0.34875751     0.00400
C1453       C  0.74220942  0.23452168  0.37969083     0.39700
C1454       C  0.68473998  0.28739425  0.33969032     0.36300
C1455       C  0.66262704  0.23913357  0.40340615     0.36100
C1456       C  0.58167791  0.19637967  0.32766619     0.36800
N1457       N  0.75313779  0.22371903  0.38902168    -0.44000
N1458       N  0.67305976  0.29855350  0.33241355    -0.44400
N1459       N  0.56546904  0.18778527  0.31213857    -0.41800
N1460       N  0.67884993  0.24774899  0.41892128    -0.43200
H1461       H  0.60644546  0.21676327  0.40655488     0.13000
H1462       H  0.63881343  0.21959301  0.32447109     0.09400
H1463       H  0.68639785  0.20864917  0.36964749     0.10500
H1464       H  0.74089371  0.31338279  0.34884848     0.16300
C1465       C  0.47200005  0.35156247  0.72685036    -0.01900
C1466       C  0.47775028  0.33391489  0.74109846     0.06700
C1467       C  0.48261634  0.31338167  0.73062593    -0.07800
C1468       C  0.48242083  0.31062020  0.70614683     0.04200
C1469       C  0.47690819  0.32849788  0.69175540    -0.15100
C1470       C  0.47161341  0.34874240  0.70242080    -0.08400
C1471       C  0.47957837  0.33707389  0.76696449     0.05100
C1472       C  0.45676839  0.31595714  0.78075772    -0.09500
C1473       C  0.45775466  0.31804791  0.80531231     0.00100
C1474       C  0.48228211  0.34164757  0.81650873     0.00000
C1475       C  0.50505274  0.36277368  0.80240496    -0.13100
C1476       C  0.50386880  0.36066802  0.77791741     0.00400
C1477       C  0.43302238  0.29585029  0.81827476     0.39700
C1478       C  0.52806498  0.38273148  0.76438079     0.36300
C1479       C  0.46649842  0.37272828  0.73693024     0.36100
C1480       C  0.48959501  0.29050822  0.69637268     0.36800
N1481       N  0.41311496  0.27801711  0.82856690    -0.44000
N1482       N  0.54745685  0.40043946  0.75355930    -0.44400
N1483       N  0.49548658  0.27447847  0.68858641    -0.41800
N1484       N  0.46213226  0.38972839  0.74498928    -0.43200
H1485       H  0.46726298  0.36253602  0.69162526     0.13000
H1486       H  0.48730266  0.29999091  0.74162987     0.09400
H1487       H  0.43801662  0.29785799  0.77224834     0.10500
H1488       H  0.52410143  0.38100105  0.81047270     0.16300
C1489       C  0.42675869  0.24557281  0.51920465    -0.01900
C1490       C  0.43988953  0.22990000  0.51267394     0.06700
C1491       C  0.45816857  0.22762063  0.52864574    -0.07800
C1492       C  0.46561181  0.24266222  0.54993331     0.04200
C1493       C  0.45391429  0.25984170  0.55612397    -0.15100
C1494       C  0.43344737  0.26003192  0.54105643    -0.08400
C1495       C  0.44065301  0.22108493  0.48806412     0.05100
C1496       C  0.46184907  0.24235434  0.47328254    -0.09500
C1497       C  0.47046558  0.23470397  0.45276098     0.00100
C1498       C  0.45749913  0.20503659  0.44642021     0.00000
C1499       C  0.43431711  0.18386160  0.46011301    -0.13100
C1500       C  0.42606148  0.19168336  0.48098232     0.00400
C1501       C  0.49355386  0.25789950  0.43910401     0.39700
C1502       C  0.40337704  0.16924707  0.49535743     0.36300
C1503       C  0.40748981  0.24811056  0.50331623     0.36100
C1504       C  0.48706948  0.24168417  0.56423641     0.36800
N1505       N  0.51225047  0.27663378  0.42844072    -0.44000
N1506       N  0.38504878  0.15133077  0.50685975    -0.44400
N1507       N  0.50475330  0.24126405  0.57527727    -0.41800
N1508       N  0.39195926  0.25005202  0.49057799    -0.43200
H1509       H  0.42435959  0.27313722  0.54552736     0.13000
H1510       H  0.46857499  0.21588138  0.52359520     0.09400
H1511       H  0.47322485  0.26498506  0.47869801     0.10500
H1512       H  0.42387110  0.16110423  0.45532369     0.16300
C1513       C  0.62830264  0.42806815  0.66026562    -0.01900
C1514       C  0.64928907  0.44058428  0.64226580     0.06700
C1515       C  0.64052614  0.43343876  0.61885748    -0.07800
C1516       C  0.61153982  0.41352412  0.61312846     0.04200
C1517       C  0.59045372  0.39992726  0.63114589    -0.15100
C1518       C  0.59904543  0.40800016  0.65461301    -0.08400
C1519       C  0.68095758  0.45908905  0.64694423     0.05100
C1520       C  0.69546990  0.44551008  0.65473835    -0.09500
C1521       C  0.72564693  0.45930626  0.65230500     0.00100
C1522       C  0.74172626  0.48722813  0.64195509     0.00000
C1523       C  0.72772155  0.50237325  0.63743723    -0.13100
C1524       C  0.69739038  0.48828385  0.63935987     0.00400
C1525       C  0.73944978  0.44381420  0.65947891     0.39700
C1526       C  0.68334089  0.50331697  0.63170454     0.36300
C1527       C  0.63636018  0.43575931  0.68451775     0.36100
C1528       C  0.60411805  0.40811784  0.58849759     0.36800
N1529       N  0.75053960  0.43147037  0.66530364    -0.44000
N1530       N  0.67204575  0.51530547  0.62547355    -0.44400
N1531       N  0.59822181  0.40384458  0.56877361    -0.41800
N1532       N  0.64288907  0.44212425  0.70394045    -0.43200
H1533       H  0.58305315  0.39819864  0.66855153     0.13000
H1534       H  0.65662286  0.44313045  0.60495916     0.09400
H1535       H  0.68298566  0.42321703  0.66092529     0.10500
H1536       H  0.73998991  0.52411339  0.63011071     0.16300
C1537       C  0.55836605  0.25549943  0.64001317    -0.01900
C1538       C  0.54093918  0.22533984  0.63574219     0.06700
C1539       C  0.51106902  0.21286933  0.63166852    -0.07800
C1540       C  0.49894099  0.23030878  0.63009971     0.04200
C1541       C  0.51706452  0.26093798  0.63226911    -0.15100
C1542       C  0.54638866  0.27286346  0.63831678    -0.08400
C1543       C  0.55459973  0.20773426  0.63269531     0.05100
C1544       C  0.56941317  0.20463900  0.65160694    -0.09500
C1545       C  0.58804747  0.19420587  0.64808724     0.00100
C1546       C  0.59195175  0.18655263  0.62528739     0.00000
C1547       C  0.57558411  0.18777242  0.60672816    -0.13100
C1548       C  0.55699978  0.19813955  0.61022120     0.00400
C1549       C  0.60475221  0.19419973  0.66775198     0.39700
C1550       C  0.54225832  0.20057153  0.59007641     0.36300
C1551       C  0.58918862  0.26955935  0.64434536     0.36100
C1552       C  0.46850417  0.21636840  0.62429055     0.36800
N1553       N  0.61800251  0.19457493  0.68380731    -0.44000
N1554       N  0.53050745  0.20233837  0.57380440    -0.44400
N1555       N  0.44413365  0.20516881  0.61952903    -0.41800
N1556       N  0.61387129  0.28074682  0.64781471    -0.43200
H1557       H  0.56052779  0.29620439  0.64052211     0.13000
H1558       H  0.49750792  0.18964977  0.62856760     0.09400
H1559       H  0.56775468  0.21206487  0.66890603     0.10500
H1560       H  0.57816032  0.18157575  0.58917982     0.16300
C1561       C  0.64937044  0.49715783  0.22652647    -0.01900
C1562       C  0.66298525  0.52353369  0.23920310     0.06700
C1563       C  0.67635776  0.54989588  0.22681980    -0.07800
C1564       C  0.67585953  0.55034203  0.20220303     0.04200
C1565       C  0.66170060  0.52390483  0.18944061    -0.15100
C1566       C  0.64855311  0.49752747  0.20191929    -0.08400
C1567       C  0.66405744  0.52425793  0.26534956     0.05100
C1568       C  0.69103678  0.53615774  0.27648736    -0.09500
C1569       C  0.69327748  0.53738713  0.30103685     0.00100
C1570       C  0.66796086  0.52667466  0.31515310     0.00000
C1571       C  0.64096524  0.51516502  0.30378698    -0.13100
C1572       C  0.63886054  0.51390364  0.27920592     0.00400
C1573       C  0.72198519  0.54986832  0.31095959     0.39700
C1574       C  0.61065574  0.50231989  0.26857156     0.36300
C1575       C  0.63685717  0.46950227  0.23836515     0.36100
C1576       C  0.68905338  0.57823585  0.19064026     0.46400
N1577       N  0.74500970  0.55981734  0.31885421    -0.44000
N1578       N  0.58805875  0.49297027  0.26001276    -0.44400
N1579       N  0.69960052  0.60059430  0.18138520    -0.41800
N1580       N  0.62689119  0.44735078  0.24786835    -0.43200
H1581       H  0.63795117  0.47708436  0.19239970     0.13000
H1582       H  0.68694738  0.57023709  0.23648187     0.09400
H1583       H  0.71049149  0.54434411  0.26587729     0.10500
H1584       H  0.62128394  0.50686636  0.31409138     0.16300
C1585       C  0.75809799  0.57803837  0.48491996    -0.01900
C1586       C  0.77265418  0.56380248  0.49154335     0.06700
C1587       C  0.77280558  0.54373619  0.47606940    -0.07800
C1588       C  0.75727473  0.53627535  0.45502136     0.04200
C1589       C  0.74121384  0.54915457  0.44892480    -0.15100
C1590       C  0.74273978  0.57085971  0.46356318    -0.08400
C1591       C  0.78365352  0.56530852  0.51576261     0.05100
C1592       C  0.76303772  0.55128207  0.53360534    -0.09500
C1593       C  0.77065735  0.54437375  0.55497714     0.00100
C1594       C  0.79980552  0.55277336  0.55931611     0.00000
C1595       C  0.82095845  0.56905240  0.54221648    -0.13100
C1596       C  0.81298465  0.57476416  0.52032981     0.00400
C1597       C  0.74755594  0.52664575  0.57129199     0.39700
C1598       C  0.83479693  0.58853859  0.50224622     0.36300
C1599       C  0.75797731  0.59937097  0.50008539     0.36100
C1600       C  0.75745415  0.51456514  0.44031336     0.36800
N1601       N  0.72848329  0.51196963  0.58377625    -0.44000
N1602       N  0.85218450  0.59935966  0.48763682    -0.44400
N1603       N  0.75748637  0.49709214  0.42858253    -0.41800
N1604       N  0.75796587  0.61655024  0.51221608    -0.43200
H1605       H  0.73053264  0.58089262  0.45904814     0.13000
H1606       H  0.78378415  0.53258121  0.48110456     0.09400
H1607       H  0.74037584  0.54342796  0.53005442     0.10500
H1608       H  0.84326252  0.57511862  0.54515979     0.16300
C1609       C  0.60438764  0.46983715  0.49815276    -0.01900
C1610       C  0.57380121  0.45365255  0.49678088     0.06700
C1611       C  0.56030621  0.45380787  0.47584275    -0.07800
C1612       C  0.57674365  0.46735942  0.45565359     0.04200
C1613       C  0.60744499  0.48151279  0.45645395    -0.15100
C1614       C  0.62083240  0.48389864  0.47820350    -0.08400
C1615       C  0.55600567  0.43369284  0.51601261     0.05100
C1616       C  0.55701229  0.44504752  0.53835728    -0.09500
C1617       C  0.54476847  0.42668106  0.55779755     0.00100
C1618       C  0.53088806  0.39611967  0.55489378     0.00000
C1619       C  0.52829141  0.38487592  0.53217941    -0.13100
C1620       C  0.54071716  0.40326826  0.51287061     0.00400
C1621       C  0.54846198  0.44015408  0.58049837     0.39700
C1622       C  0.53879477  0.39023639  0.49027618     0.36300
C1623       C  0.61948423  0.47012920  0.51916495     0.36100
C1624       C  0.56121417  0.46420958  0.43417575     0.36800
N1625       N  0.55149294  0.45100761  0.59866897    -0.44000
N1626       N  0.53689030  0.37945790  0.47226224    -0.44400
N1627       N  0.54861084  0.46150446  0.41700815    -0.41800
N1628       N  0.63160243  0.47029243  0.53594550    -0.43200
H1629       H  0.64432590  0.49509729  0.47934055     0.13000
H1630       H  0.53675934  0.44169912  0.47490032     0.09400
H1631       H  0.56860879  0.46844274  0.54076539     0.10500
H1632       H  0.51743391  0.36156624  0.52952711     0.16300
C1633       C  0.51303842  0.30597092  0.37149905    -0.01900
C1634       C  0.54174975  0.32461084  0.36337202     0.06700
C1635       C  0.55734220  0.31243697  0.35480744    -0.07800
C1636       C  0.54595015  0.28250194  0.35654548     0.04200
C1637       C  0.51845249  0.26423427  0.36706246    -0.15100
C1638       C  0.50148145  0.27594145  0.37301601    -0.08400
C1639       C  0.55779948  0.35645943  0.36786456     0.05100
C1640       C  0.56261442  0.36570635  0.39131507    -0.09500
C1641       C  0.58098751  0.39501759  0.39706113     0.00100
C1642       C  0.59484521  0.41600636  0.37907194     0.00000
C1643       C  0.58896843  0.40697315  0.35552387    -0.13100
C1644       C  0.57094814  0.37735881  0.34982329     0.00400
C1645       C  0.58567288  0.40282157  0.42164659     0.39700
C1646       C  0.56675660  0.36882544  0.32544518     0.36300
C1647       C  0.49578870  0.31742654  0.37976305     0.36100
C1648       C  0.56341726  0.27123046  0.34833927     0.36800
N1649       N  0.58992862  0.40932608  0.44126097    -0.44000
N1650       N  0.56349309  0.36196800  0.30589382    -0.44400
N1651       N  0.57733346  0.26211839  0.34177160    -0.41800
N1652       N  0.48200725  0.32664155  0.38643231    -0.43200
H1653       H  0.48021233  0.26208825  0.38085136     0.13000
H1654       H  0.57932103  0.32658186  0.34834494     0.09400
H1655       H  0.55287664  0.34972497  0.40527715     0.10500
H1656       H  0.59951128  0.42285627  0.34160203     0.16300
C1657       C  0.77517105  0.48701238  0.36139696    -0.01900
C1658       C  0.76275402  0.45674061  0.35993355     0.06700
C1659       C  0.73248507  0.43829342  0.36056804    -0.07800
C1660       C  0.71466223  0.44936602  0.36492980     0.04200
C1661       C  0.72734631  0.47954856  0.36921655    -0.15100
C1662       C  0.75748344  0.49822583  0.36599480    -0.08400
C1663       C  0.78056049  0.44365515  0.36344771     0.05100
C1664       C  0.78804600  0.44172096  0.38656523    -0.09500
C1665       C  0.80141187  0.42634734  0.39191032     0.00100
C1666       C  0.80777439  0.41258771  0.37380492     0.00000
C1667       C  0.80175200  0.41588104  0.35040092    -0.13100
C1668       C  0.78790946  0.43110978  0.34514581     0.00400
C1669       C  0.80802586  0.42483792  0.41625719     0.39700
C1670       C  0.78092367  0.43317131  0.32108128     0.36300
C1671       C  0.80616859  0.50675471  0.35936920     0.36100
C1672       C  0.68359814  0.42901231  0.36566202     0.36800
N1673       N  0.81309599  0.42362903  0.43580646    -0.44000
N1674       N  0.77536343  0.43493412  0.30178291    -0.44400
N1675       N  0.65872740  0.41272406  0.36624032    -0.41800
N1676       N  0.83101573  0.52253182  0.35753376    -0.43200
H1677       H  0.76755134  0.52146302  0.36852970     0.13000
H1678       H  0.72288496  0.41496665  0.35919253     0.09400
H1679       H  0.78247594  0.45149152  0.40063841     0.10500
H1680       H  0.80658811  0.40545017  0.33640409     0.16300
C1681       C  0.49994285  0.64962663  0.28261438    -0.01900
C1682       C  0.52536358  0.67085135  0.27104449     0.06700
C1683       C  0.54986218  0.69023509  0.28417816    -0.07800
C1684       C  0.54924789  0.68916583  0.30872475     0.04200
C1685       C  0.52333206  0.66860939  0.32058524    -0.15100
C1686       C  0.49906642  0.64866721  0.30717532    -0.08400
C1687       C  0.52618662  0.67445216  0.24529689     0.05100
C1688       C  0.52208587  0.69602934  0.23615286    -0.09500
C1689       C  0.52139809  0.69962289  0.21190932     0.00100
C1690       C  0.52492933  0.68127083  0.19631192     0.00000
C1691       C  0.52951426  0.65993057  0.20564167    -0.13100
C1692       C  0.53032017  0.65652927  0.22994390     0.00400
C1693       C  0.51571954  0.72144453  0.20374131     0.39700
C1694       C  0.53558688  0.63471045  0.23878236     0.36300
C1695       C  0.47432477  0.62910853  0.26959148     0.36100
C1696       C  0.57577267  0.70913482  0.32102937     0.36800
N1697       N  0.51116277  0.73895317  0.19729526    -0.44000
N1698       N  0.53992343  0.61730383  0.24588620    -0.44400
N1699       N  0.59708823  0.72509392  0.33082972    -0.41800
N1700       N  0.45386013  0.61265433  0.25909052    -0.43200
H1701       H  0.47911539  0.63260255  0.31585038     0.13000
H1702       H  0.56949245  0.70639155  0.27516505     0.09400
H1703       H  0.51886545  0.70976761  0.24806819     0.10500
H1704       H  0.53252824  0.64589144  0.19393464     0.16300
C1705       C  0.63913503  0.61206385  0.41650661    -0.01900
C1706       C  0.64829864  0.63373796  0.39914120     0.06700
C1707       C  0.66871914  0.63678705  0.38227110    -0.07800
C1708       C  0.67754827  0.61661909  0.38100170     0.04200
C1709       C  0.66584013  0.59306939  0.39691401    -0.15100
C1710       C  0.64798003  0.59205108  0.41528216    -0.08400
C1711       C  0.63155485  0.64801844  0.39518937     0.05100
C1712       C  0.63166407  0.66705573  0.41210747    -0.09500
C1713       C  0.61090117  0.67519193  0.41137022     0.00100
C1714       C  0.58989979  0.66435061  0.39330821     0.00000
C1715       C  0.59136520  0.64713793  0.37553932    -0.13100
C1716       C  0.61154972  0.63861054  0.37648512     0.00400
C1717       C  0.60996590  0.69235240  0.43038213     0.39700
C1718       C  0.60924662  0.61774827  0.35934761     0.36300
C1719       C  0.61812832  0.60791564  0.43420960     0.36100
C1720       C  0.69597551  0.61878733  0.36174437     0.36800
N1721       N  0.60906200  0.70598423  0.44566414    -0.44000
N1722       N  0.60723548  0.60083280  0.34577907    -0.44400
N1723       N  0.71069755  0.62047223  0.34628610    -0.41800
N1724       N  0.60124838  0.60462869  0.44832504    -0.43200
H1725       H  0.63921004  0.57426659  0.42779386     0.13000
H1726       H  0.67574637  0.65338807  0.36884880     0.09400
H1727       H  0.64675613  0.67401344  0.42668718     0.10500
H1728       H  0.57551376  0.63888522  0.36143932     0.16300
C1729       C  0.31410362  0.82752853  0.23011064    -0.01900
C1730       C  0.33261977  0.85197689  0.24396465     0.06700
C1731       C  0.35119279  0.87877822  0.23311633    -0.07800
C1732       C  0.35187207  0.88150711  0.20864213     0.04200
C1733       C  0.33338211  0.85696577  0.19453473    -0.15100
C1734       C  0.31438670  0.83022430  0.20564071    -0.08400
C1735       C  0.33406327  0.84988882  0.26977240     0.05100
C1736       C  0.35513969  0.84527897  0.27921433    -0.09500
C1737       C  0.35848521  0.84468395  0.30352842     0.00100
C1738       C  0.34020430  0.84861535  0.31900251     0.00000
C1739       C  0.31867809  0.85268320  0.30929103    -0.13100
C1740       C  0.31567985  0.85357447  0.28491700     0.00400
C1741       C  0.38097188  0.84007286  0.31180778     0.39700
C1742       C  0.29419679  0.85912847  0.27577783     0.36300
C1743       C  0.29540086  0.79930705  0.24060008     0.36100
C1744       C  0.37174555  0.90978714  0.19868099     0.36800
N1745       N  0.39911436  0.83652533  0.31834730    -0.44000
N1746       N  0.27709581  0.86372693  0.26840283    -0.44400
N1747       N  0.38778857  0.93245790  0.19076200    -0.41800
N1748       N  0.28053268  0.77664754  0.24898875    -0.43200
H1749       H  0.30037435  0.81107769  0.19516303     0.13000
H1750       H  0.36551919  0.89755938  0.24385271     0.09400
H1751       H  0.36930414  0.84249736  0.26746450     0.10500
H1752       H  0.30458375  0.85592891  0.32072222     0.16300
C1753       C  0.38382287  0.97758045  0.37558708    -0.01900
C1754       C  0.37472189  0.98799263  0.39430816     0.06700
C1755       C  0.35575435  0.96828189  0.41131753    -0.07800
C1756       C  0.34670968  0.93867412  0.41032178     0.04200
C1757       C  0.35723329  0.92861031  0.39227004    -0.15100
C1758       C  0.37513000  0.94827606  0.37474717    -0.08400
C1759       C  0.38768363  0.01980398  0.39745654     0.05100
C1760       C  0.38117480  0.03521682  0.38132182    -0.09500
C1761       C  0.39804031  0.06574444  0.38031192     0.00100
C1762       C  0.42190181  0.08121511  0.39564737     0.00000
C1763       C  0.42679451  0.06577799  0.41298919    -0.13100
C1764       C  0.41002649  0.03539703  0.41397369     0.00400
C1765       C  0.39221813  0.08033759  0.36193154     0.39700
C1766       C  0.41787999  0.02063662  0.43071172     0.36300
C1767       C  0.40342422  0.99688453  0.35767092     0.36100
C1768       C  0.32789176  0.91955312  0.42861512     0.36800
N1769       N  0.38763772  0.09210112  0.34719026    -0.44000
N1770       N  0.42421229  0.00880948  0.44408056    -0.44400
N1771       N  0.31269530  0.90416901  0.44322146    -0.41800
N1772       N  0.41909941  0.01233969  0.34331405    -0.43200
H1773       H  0.38305041  0.94088669  0.36053497     0.13000
H1774       H  0.34875279  0.97623881  0.42577011     0.09400
H1775       H  0.36410901  0.02327780  0.36849967     0.10500
H1776       H  0.44506251  0.07741696  0.42487418     0.16300
C1777       C  0.40854572  0.76005786  0.37797773    -0.01900
C1778       C  0.43820653  0.77724539  0.37213450     0.06700
C1779       C  0.45049152  0.80675812  0.36706385    -0.07800
C1780       C  0.43412213  0.81984964  0.36933062     0.04200
C1781       C  0.40475035  0.80308835  0.37694506    -0.15100
C1782       C  0.39205654  0.77294527  0.38011395    -0.08400
C1783       C  0.45752329  0.76591502  0.37551658     0.05100
C1784       C  0.46211076  0.75144574  0.35715421    -0.09500
C1785       C  0.47706696  0.73710589  0.36122038     0.00100
C1786       C  0.48748885  0.73729162  0.38397193     0.00000
C1787       C  0.48405724  0.75304409  0.40191576    -0.13100
C1788       C  0.46917899  0.76722800  0.39789396     0.00400
C1789       C  0.47931311  0.72045429  0.34241435     0.39700
C1790       C  0.46460828  0.78158133  0.41734059     0.36300
C1791       C  0.39517059  0.72957791  0.38360182     0.36100
C1792       C  0.44875362  0.85073046  0.36498682     0.36800
N1793       N  0.48106667  0.70701528  0.32739434    -0.44000
N1794       N  0.46076965  0.79297730  0.43288410    -0.44400
N1795       N  0.46058994  0.87549095  0.36151070    -0.41800
N1796       N  0.38453428  0.70520425  0.38821937    -0.43200
H1797       H  0.36955087  0.75953557  0.38560012     0.13000
H1798       H  0.47340320  0.81993914  0.36265548     0.09400
H1799       H  0.45291221  0.75028700  0.33999279     0.10500
H1800       H  0.49198320  0.75321994  0.41944922     0.16300
C1801       C  0.16261973  0.51364158  0.22915167    -0.01900
C1802       C  0.15736546  0.48975830  0.24308083     0.06700
C1803       C  0.15115616  0.46387649  0.23197826    -0.07800
C1804       C  0.15062037  0.46167010  0.20745096     0.04200
C1805       C  0.15627674  0.48566890  0.19356445    -0.15100
C1806       C  0.16193931  0.51136811  0.20462782    -0.08400
C1807       C  0.15752483  0.49086669  0.26920776     0.05100
C1808       C  0.13774890  0.49595794  0.28087831    -0.09500
C1809       C  0.13629370  0.49569636  0.30545557     0.00100
C1810       C  0.15438661  0.48949516  0.31881128     0.00000
C1811       C  0.17387325  0.48404568  0.30711752    -0.13100
C1812       C  0.17610607  0.48543439  0.28258918     0.00400
C1813       C  0.11509428  0.50049070  0.31644867     0.39700
C1814       C  0.19840717  0.48238722  0.27156610     0.36300
C1815       C  0.16946471  0.54091443  0.23953340     0.36100
C1816       C  0.14277255  0.43414632  0.19699147     0.36800
N1817       N  0.09808530  0.50428469  0.32527562    -0.44000
N1818       N  0.21644728  0.48025282  0.26268958    -0.44400
N1819       N  0.13626679  0.41202392  0.18860173    -0.41800
N1820       N  0.17490178  0.56280061  0.24776208    -0.43200
H1821       H  0.16637797  0.52993062  0.19404409     0.13000
H1822       H  0.14638763  0.44519968  0.24256262     0.09400
H1823       H  0.12312073  0.49975387  0.27073025     0.10500
H1824       H  0.18786873  0.47932547  0.31721320     0.16300
C1825       C  0.96071643  0.34643281  0.38569007    -0.01900
C1826       C  0.98190295  0.37066990  0.39862086     0.06700
C1827       C  0.97335070  0.38712696  0.41144079    -0.07800
C1828       C  0.94478699  0.38097254  0.41037499     0.04200
C1829       C  0.92410641  0.35820029  0.39578147    -0.15100
C1830       C  0.93216055  0.34040675  0.38435661    -0.08400
C1831       C  0.01358583  0.38190107  0.39636680     0.05100
C1832       C  0.02630318  0.39039424  0.37401424    -0.09500
C1833       C  0.05650810  0.40694661  0.37132205     0.00100
C1834       C  0.07469132  0.41531370  0.39121406     0.00000
C1835       C  0.06218611  0.40471777  0.41337465    -0.13100
C1836       C  0.03180733  0.38815773  0.41609248     0.00400
C1837       C  0.06843429  0.41667739  0.34806780     0.39700
C1838       C  0.01979578  0.37888067  0.43934591     0.36300
C1839       C  0.96795369  0.32776666  0.37331584     0.36100
C1840       C  0.93749138  0.39854517  0.42440021     0.36800
N1841       N  0.07807493  0.42450695  0.32947519    -0.44000
N1842       N  0.01010893  0.37142094  0.45797259    -0.44400
N1843       N  0.93163106  0.41255155  0.43570355    -0.41800
N1844       N  0.97378189  0.31278514  0.36345122    -0.43200
H1845       H  0.91648860  0.32247876  0.37349676     0.13000
H1846       H  0.98939489  0.40572159  0.42154177     0.09400
H1847       H  0.01260050  0.38579688  0.35873336     0.10500
H1848       H  0.07601806  0.41129533  0.42876771     0.16300
C1849       C  0.25164585  0.70455267  0.36345571    -0.01900
C1850       C  0.23701978  0.68610294  0.38269938     0.06700
C1851       C  0.23817084  0.69833097  0.40465471    -0.07800
C1852       C  0.25505449  0.72835174  0.40805611     0.04200
C1853       C  0.27118554  0.74682407  0.38918513    -0.15100
C1854       C  0.26846239  0.73481105  0.36677720    -0.08400
C1855       C  0.22279317  0.65404498  0.38131125     0.05100
C1856       C  0.24028216  0.64224563  0.37822129    -0.09500
C1857       C  0.22877075  0.61237657  0.38100088     0.00100
C1858       C  0.19912795  0.59376098  0.38691492     0.00000
C1859       C  0.18136190  0.60546961  0.38871396    -0.13100
C1860       C  0.19297173  0.63534013  0.38618160     0.00400
C1861       C  0.24784501  0.60149566  0.37767632     0.39700
C1862       C  0.17406085  0.64643792  0.38927256     0.36300
C1863       C  0.25016837  0.69281669  0.34037802     0.36100
C1864       C  0.25586338  0.73946119  0.43129494     0.36800
N1865       N  0.26310025  0.59275173  0.37498686    -0.44000
N1866       N  0.15891492  0.65533263  0.39181137    -0.44400
N1867       N  0.25612305  0.74779652  0.45006213    -0.41800
N1868       N  0.24889217  0.68333964  0.32187759    -0.43200
H1869       H  0.28077768  0.74886467  0.35221236     0.13000
H1870       H  0.22683660  0.68422636  0.41947113     0.09400
H1871       H  0.26327397  0.65660461  0.37456958     0.10500
H1872       H  0.15855038  0.59144417  0.39311699     0.16300
C1873       C  0.36245957  0.59900514  0.38678763    -0.01900
C1874       C  0.34972845  0.57006687  0.37906235     0.06700
C1875       C  0.36765286  0.55975257  0.37247182    -0.07800
C1876       C  0.39801458  0.57745230  0.37464368     0.04200
C1877       C  0.41085648  0.60608160  0.38385574    -0.15100
C1878       C  0.39263030  0.61668260  0.38901720    -0.08400
C1879       C  0.31780861  0.54970940  0.38071210     0.05100
C1880       C  0.30007854  0.54525213  0.36123684    -0.09500
C1881       C  0.26970037  0.53060950  0.36369050     0.00100
C1882       C  0.25685263  0.52036367  0.38599371     0.00000
C1883       C  0.27467360  0.52336245  0.40507461    -0.13100
C1884       C  0.30484366  0.53783492  0.40259001     0.00400
C1885       C  0.25268188  0.52881872  0.34358890     0.39700
C1886       C  0.32238125  0.54185158  0.42300687     0.36300
C1887       C  0.34478182  0.61056770  0.39363512     0.36100
C1888       C  0.41505625  0.56509917  0.36806123     0.36800
N1889       N  0.23940587  0.52778271  0.32731897    -0.44000
N1890       N  0.33676430  0.54540947  0.43920966    -0.44400
N1891       N  0.42864943  0.55513024  0.36276104    -0.41800
N1892       N  0.33055469  0.61973097  0.39917893    -0.43200
H1893       H  0.40177942  0.63856036  0.39578592     0.13000
H1894       H  0.35782835  0.53745957  0.36649893     0.09400
H1895       H  0.31007552  0.55457969  0.34442382     0.10500
H1896       H  0.26505123  0.51534793  0.42225437     0.16300
C1897       C  0.49879269  0.86198384  0.78383853    -0.01900
C1898       C  0.52010861  0.86102818  0.77019073     0.06700
C1899       C  0.54374747  0.86230520  0.78161523    -0.07800
C1900       C  0.54589688  0.86351781  0.80616213     0.04200
C1901       C  0.52431960  0.86397483  0.81979449    -0.15100
C1902       C  0.50118926  0.86366760  0.80835446    -0.08400
C1903       C  0.51840059  0.85906850  0.74404389     0.05100
C1904       C  0.51679422  0.88036886  0.73126954    -0.09500
C1905       C  0.51531509  0.87940540  0.70671442     0.00100
C1906       C  0.51633538  0.85727260  0.69439351     0.00000
C1907       C  0.51830439  0.83616192  0.70706225    -0.13100
C1908       C  0.51886993  0.83661287  0.73168743     0.00400
C1909       C  0.51371710  0.90194708  0.69454974     0.39700
C1910       C  0.51887363  0.81322897  0.74388738     0.36300
C1911       C  0.47366914  0.86016172  0.77322488     0.36100
C1912       C  0.57085307  0.86507649  0.81684611     0.36800
N1913       N  0.51236918  0.91994451  0.68476904    -0.44000
N1914       N  0.51878887  0.79446623  0.75370916    -0.44400
N1915       N  0.59086824  0.86636464  0.82542223    -0.41800
N1916       N  0.45354913  0.85876684  0.76475763    -0.43200
H1917       H  0.48436437  0.86378083  0.81865366     0.13000
H1918       H  0.56061405  0.86233487  0.77127751     0.09400
H1919       H  0.51685408  0.89793602  0.74052902     0.10500
H1920       H  0.51868424  0.81888029  0.69770197     0.16300
C1921       C  0.63252130  0.03347543  0.59171879    -0.01900
C1922       C  0.64377074  0.02351646  0.60912649     0.06700
C1923       C  0.66592302  0.04389883  0.62393012    -0.07800
C1924       C  0.67448295  0.07330570  0.62342111     0.04200
C1925       C  0.66081434  0.08264892  0.60768005    -0.15100
C1926       C  0.64110525  0.06278626  0.59113979    -0.08400
C1927       C  0.62855458  0.99200424  0.61494649     0.05100
C1928       C  0.62640397  0.97191813  0.59810331    -0.09500
C1929       C  0.60644203  0.94197338  0.60098782     0.00100
C1930       C  0.58799636  0.93200120  0.62080907     0.00000
C1931       C  0.59211006  0.95183647  0.63854825    -0.13100
C1932       C  0.61226884  0.98153111  0.63590760     0.00400
C1933       C  0.60384111  0.92228219  0.58265865     0.39700
C1934       C  0.61414473  0.00093712  0.65425304     0.36300
C1935       C  0.61019274  0.01367119  0.57560781     0.36100
C1936       C  0.69513344  0.09257369  0.64076591     0.36800
N1937       N  0.60176534  0.90637114  0.56807359    -0.44000
N1938       N  0.61578409  0.01645540  0.66902069    -0.44400
N1939       N  0.71165343  0.10797872  0.65470212    -0.41800
N1940       N  0.59236618  0.99781931  0.56265688    -0.43200
H1941       H  0.63096150  0.06981259  0.57860213     0.13000
H1942       H  0.67486149  0.03639105  0.63717137     0.09400
H1943       H  0.63913556  0.97979375  0.58210422     0.10500
H1944       H  0.57844606  0.94423612  0.65409533     0.16300
C1945       C  0.54197251  0.74190521  0.50178284    -0.01900
C1946       C  0.55399123  0.77188087  0.49794510     0.06700
C1947       C  0.56443293  0.78333936  0.47551414    -0.07800
C1948       C  0.56095966  0.76513786  0.45658523     0.04200
C1949       C  0.54640655  0.73459405  0.45995120    -0.15100
C1950       C  0.53823333  0.72362168  0.48289481    -0.08400
C1951       C  0.55213412  0.79059581  0.51619244     0.05100
C1952       C  0.56837672  0.79722358  0.53694053    -0.09500
C1953       C  0.56392827  0.81138980  0.55569790     0.00100
C1954       C  0.54262593  0.81904132  0.55387453     0.00000
C1955       C  0.52808881  0.81424692  0.53228198    -0.13100
C1956       C  0.53241899  0.79997707  0.51372089     0.00400
C1957       C  0.58087185  0.81675495  0.57673222     0.39700
C1958       C  0.51468165  0.79324629  0.49294717     0.36300
C1959       C  0.53153258  0.72901391  0.52463143     0.36100
C1960       C  0.57076004  0.77842784  0.43376302     0.36800
N1961       N  0.59453700  0.82106799  0.59355508    -0.44000
N1962       N  0.50038796  0.78774133  0.47635445    -0.44400
N1963       N  0.57871041  0.78920034  0.41552225    -0.41800
N1964       N  0.52326045  0.71849920  0.54290668    -0.43200
H1965       H  0.52748361  0.70039782  0.48594620     0.13000
H1966       H  0.57397713  0.80644138  0.47254961     0.09400
H1967       H  0.58385699  0.79038814  0.53877331     0.10500
H1968       H  0.51186123  0.82006709  0.53022663     0.16300
C1969       C  0.44213394  0.88536339  0.53447601    -0.01900
C1970       C  0.46289840  0.89866516  0.51633017     0.06700
C1971       C  0.49205575  0.90811608  0.52096369    -0.07800
C1972       C  0.50008050  0.90176527  0.54245499     0.04200
C1973       C  0.47882088  0.88635994  0.55981533    -0.15100
C1974       C  0.45026287  0.87934206  0.55600814    -0.08400
C1975       C  0.45338097  0.89673354  0.49158663     0.05100
C1976       C  0.43958368  0.91138305  0.48439469    -0.09500
C1977       C  0.42482435  0.90468997  0.46282562     0.00100
C1978       C  0.42370021  0.88291263  0.44838005     0.00000
C1979       C  0.43948720  0.87012816  0.45474915    -0.13100
C1980       C  0.45423961  0.87679783  0.47608750     0.00400
C1981       C  0.40892712  0.91845384  0.45688890     0.39700
C1982       C  0.46783433  0.86085689  0.48254771     0.36300
C1983       C  0.41181300  0.87500634  0.53065964     0.36100
C1984       C  0.52937540  0.90819833  0.54517200     0.36800
N1985       N  0.39617846  0.92944505  0.45201838    -0.44000
N1986       N  0.47871989  0.84809887  0.48772595    -0.44400
N1987       N  0.55283959  0.91319133  0.54710110    -0.41800
N1988       N  0.38751440  0.86668836  0.52762491    -0.43200
H1989       H  0.43383288  0.86728052  0.56930676     0.13000
H1990       H  0.50802319  0.91811386  0.50701762     0.09400
H1991       H  0.43890920  0.92674170  0.49622785     0.10500
H1992       H  0.43874218  0.85342720  0.44362960     0.16300
C1993       C  0.16778095  0.65209439  0.72988368    -0.01900
C1994       C  0.15271983  0.66303459  0.74192808     0.06700
C1995       C  0.13597284  0.67110571  0.72912274    -0.07800
C1996       C  0.13408629  0.66847003  0.70460392     0.04200
C1997       C  0.14922050  0.65757922  0.69246244    -0.15100
C1998       C  0.16572835  0.64920494  0.70535927    -0.08400
C1999       C  0.15330112  0.66529815  0.76795812     0.05100
C2000       C  0.17065630  0.69251253  0.77863835    -0.09500
C2001       C  0.17152825  0.69548764  0.80317713     0.00100
C2002       C  0.15448411  0.67071280  0.81762181     0.00000
C2003       C  0.13695972  0.64350253  0.80660341    -0.13100
C2004       C  0.13626477  0.64068530  0.78211245     0.00400
C2005       C  0.19020481  0.72427473  0.81276694     0.39700
C2006       C  0.11757053  0.61235831  0.77177239     0.36300
C2007       C  0.18595260  0.64433426  0.74232084     0.36100
C2008       C  0.11554080  0.67597828  0.69241121     0.36800
N2009       N  0.20521047  0.74736359  0.82040780    -0.44000
N2010       N  0.10260134  0.58973168  0.76335940    -0.44400
N2011       N  0.10059528  0.68183753  0.68259248    -0.41800
N2012       N  0.20061398  0.63823420  0.75229578    -0.43200
H2013       H  0.17763822  0.64108698  0.69620903     0.13000
H2014       H  0.12407519  0.67917559  0.73836788     0.09400
H2015       H  0.18368849  0.71151523  0.76771246     0.10500
H2016       H  0.12369002  0.62417214  0.81710980     0.16300
C2017       C  0.02504849  0.62098291  0.63071960    -0.01900
C2018       C  0.01660252  0.63401887  0.61371089     0.06700
C2019       C  0.03794805  0.65569731  0.59908017    -0.07800
C2020       C  0.06724328  0.66374404  0.60073760     0.04200
C2021       C  0.07538573  0.64950653  0.61699638    -0.15100
C2022       C  0.05402528  0.62868371  0.63216735    -0.08400
C2023       C  0.98517706  0.62272335  0.60978211     0.05100
C2024       C  0.96919137  0.62673943  0.62719668    -0.09500
C2025       C  0.93864989  0.61007816  0.62725272     0.00100
C2026       C  0.92366965  0.58864019  0.60980909     0.00000
C2027       C  0.93971230  0.58662172  0.59126372    -0.13100
C2028       C  0.97015686  0.60358073  0.59102364     0.00400
C2029       C  0.92349364  0.61356763  0.64658926     0.39700
C2030       C  0.98558278  0.59920169  0.57238038     0.36300
C2031       C  0.00406394  0.59856050  0.64621893     0.36100
C2032       C  0.08810073  0.68565808  0.58490040     0.36800
N2033       N  0.91150602  0.61663673  0.66208436    -0.44000
N2034       N  0.99803586  0.59583106  0.55743256    -0.44400
N2035       N  0.10486961  0.70331022  0.57226931    -0.41800
N2036       N  0.98723627  0.58063636  0.65864001    -0.43200
H2037       H  0.05986364  0.61788927  0.64507040     0.13000
H2038       H  0.03156512  0.66578130  0.58595697     0.09400
H2039       H  0.98063417  0.64150412  0.64163474     0.10500
H2040       H  0.92847456  0.57041677  0.57765147     0.16300
C2041       C  0.11310659  0.51641747  0.49720278    -0.01900
C2042       C  0.10360705  0.53615366  0.49557113     0.06700
C2043       C  0.09785920  0.54320959  0.47333211    -0.07800
C2044       C  0.10446982  0.53343245  0.45284884     0.04200
C2045       C  0.11710474  0.51644536  0.45462841    -0.15100
C2046       C  0.11998193  0.50690986  0.47675348    -0.08400
C2047       C  0.10897475  0.55624098  0.51532107     0.05100
C2048       C  0.13441885  0.58366312  0.51403174    -0.09500
C2049       C  0.14410286  0.60252778  0.53313668     0.00100
C2050       C  0.12798331  0.59412417  0.55442105     0.00000
C2051       C  0.10137965  0.56724013  0.55522442    -0.13100
C2052       C  0.09189118  0.54818509  0.53585967     0.00400
C2053       C  0.17116174  0.63003229  0.53019488     0.39700
C2054       C  0.06497904  0.52044226  0.53748013     0.36300
C2055       C  0.11915543  0.50832409  0.51964248     0.36100
C2056       C  0.10140596  0.54394050  0.43041346     0.36800
N2057       N  0.19296520  0.65184661  0.52760337    -0.44000
N2058       N  0.04332557  0.49822562  0.53872611    -0.44400
N2059       N  0.09903077  0.55240663  0.41242641    -0.41800
N2060       N  0.12397491  0.50178641  0.53761152    -0.43200
H2061       H  0.12964677  0.49375763  0.47811688     0.13000
H2062       H  0.09094744  0.55868868  0.47199396     0.09400
H2063       H  0.14755234  0.58988822  0.49818688     0.10500
H2064       H  0.08865139  0.56056180  0.57125854     0.16300
C2065       C  0.24408887  0.79690919  0.48181576    -0.01900
C2066       C  0.25211225  0.78688572  0.50150022     0.06700
C2067       C  0.28038798  0.79224192  0.50263305    -0.07800
C2068       C  0.30026283  0.80623446  0.48434535     0.04200
C2069       C  0.29189575  0.81511919  0.46390409    -0.15100
C2070       C  0.26394509  0.81102652  0.46337493    -0.08400
C2071       C  0.23117007  0.76889721  0.52041422     0.05100
C2072       C  0.20648846  0.74177638  0.51465633    -0.09500
C2073       C  0.18939242  0.72183687  0.53226042     0.00100
C2074       C  0.19688236  0.72897013  0.55608428     0.00000
C2075       C  0.22002669  0.75695549  0.56183637    -0.13100
C2076       C  0.23736592  0.77670383  0.54432628     0.00400
C2077       C  0.16437830  0.69420047  0.52552250     0.39700
C2078       C  0.26233763  0.80423818  0.55138660     0.36300
C2079       C  0.21541353  0.79239389  0.47989898     0.36100
C2080       C  0.32832610  0.80928864  0.48679809     0.36800
N2081       N  0.14415227  0.67215025  0.52015082    -0.44000
N2082       N  0.28252871  0.82614978  0.55706145    -0.44400
N2083       N  0.35067958  0.81148728  0.48881507    -0.41800
N2084       N  0.19238564  0.78868240  0.47829322    -0.43200
H2085       H  0.25700912  0.81763525  0.44803073     0.13000
H2086       H  0.28663584  0.78430209  0.51757316     0.09400
H2087       H  0.20143821  0.73554530  0.49636934     0.10500
H2088       H  0.22592170  0.76270601  0.58009734     0.16300
C2089       C  0.30331270  0.77195118  0.61989527    -0.01900
C2090       C  0.31621470  0.76475181  0.63796153     0.06700
C2091       C  0.29847557  0.74299324  0.65420484    -0.07800
C2092       C  0.26814060  0.72729716  0.65179943     0.04200
C2093       C  0.25546215  0.73336982  0.63285681    -0.15100
C2094       C  0.27313728  0.75618002  0.61745811    -0.08400
C2095       C  0.34803215  0.77758865  0.63828163     0.05100
C2096       C  0.36637135  0.80687978  0.64446274    -0.09500
C2097       C  0.39651642  0.82100999  0.64127450     0.00100
C2098       C  0.40866743  0.80570267  0.63129255     0.00000
C2099       C  0.39018316  0.77584822  0.62654685    -0.13100
C2100       C  0.36022088  0.76181431  0.62988991     0.00400
C2101       C  0.41407441  0.85117191  0.64813886     0.39700
C2102       C  0.34245260  0.73162598  0.62317378     0.36300
C2103       C  0.32066033  0.79378987  0.60251239     0.36100
C2104       C  0.25066127  0.70332373  0.66750896     0.36800
N2105       N  0.42808495  0.87530750  0.65378458    -0.44000
N2106       N  0.32878761  0.70745795  0.61759777    -0.44400
N2107       N  0.23659977  0.68393142  0.67993005    -0.41800
N2108       N  0.33454062  0.81122904  0.58855425    -0.43200
H2109       H  0.26343540  0.76044515  0.60259193     0.13000
H2110       H  0.30840122  0.73731962  0.66800208     0.09400
H2111       H  0.35696586  0.81894491  0.65111218     0.10500
H2112       H  0.39892644  0.76346260  0.61928698     0.16300
C2113       C  0.35211062  0.51521946  0.73062298    -0.01900
C2114       C  0.33543293  0.48897933  0.74313705     0.06700
C2115       C  0.31885769  0.46287094  0.73066144    -0.07800
C2116       C  0.31940192  0.46247213  0.70604119     0.04200
C2117       C  0.33698246  0.48868163  0.69349164    -0.15100
C2118       C  0.35301244  0.51483205  0.70609485    -0.08400
C2119       C  0.33495891  0.48837950  0.76922803     0.05100
C2120       C  0.30893612  0.47996219  0.78098234    -0.09500
C2121       C  0.30774978  0.48017653  0.80557301     0.00100
C2122       C  0.33314539  0.48881374  0.81900402     0.00000
C2123       C  0.35903443  0.49659133  0.80699020    -0.13100
C2124       C  0.36008791  0.49634588  0.78243307     0.00400
C2125       C  0.28021299  0.47192063  0.81623324     0.39700
C2126       C  0.38715789  0.50406353  0.77115483     0.36300
C2127       C  0.36796583  0.54290362  0.74254769     0.36100
C2128       C  0.30251243  0.43476311  0.69428600     0.36800
N2129       N  0.25811025  0.46531850  0.82470046    -0.44000
N2130       N  0.40884549  0.51034847  0.76206920    -0.44400
N2131       N  0.28893396  0.41255870  0.68487297    -0.41800
N2132       N  0.38066027  0.56508953  0.75210154    -0.43200
H2133       H  0.36610475  0.53519025  0.69673239     0.13000
H2134       H  0.30580089  0.44267705  0.74023361     0.09400
H2135       H  0.28954312  0.47369168  0.77083777     0.10500
H2136       H  0.37870049  0.50300486  0.81676161     0.16300
C2137       C  0.37249248  0.39879550  0.63786454    -0.01900
C2138       C  0.36561780  0.38054548  0.61807145     0.06700
C2139       C  0.34765574  0.38126454  0.60054157    -0.07800
C2140       C  0.33843495  0.40123324  0.60172197     0.04200
C2141       C  0.34745941  0.42106998  0.62063865    -0.15100
C2142       C  0.36348107  0.41870036  0.63892476    -0.08400
C2143       C  0.38015442  0.36373105  0.61434728     0.05100
C2144       C  0.37727026  0.34346363  0.63131896    -0.09500
C2145       C  0.39590620  0.33266635  0.63138964     0.00100
C2146       C  0.41737886  0.34147773  0.61378474     0.00000
C2147       C  0.41868294  0.35993575  0.59583198    -0.13100
C2148       C  0.40050108  0.37114335  0.59600861     0.00400
C2149       C  0.39477362  0.31541420  0.65116497     0.39700
C2150       C  0.40499837  0.39222784  0.57830063     0.36300
C2151       C  0.39049962  0.39905039  0.65667395     0.36100
C2152       C  0.32146252  0.40219392  0.58262595     0.36800
N2153       N  0.39413214  0.30187267  0.66713369    -0.44000
N2154       N  0.40860466  0.40914978  0.56413913    -0.44400
N2155       N  0.30777924  0.40292353  0.56735347    -0.41800
N2156       N  0.40480809  0.39919689  0.67181608    -0.43200
H2157       H  0.37005876  0.43338890  0.65381507     0.13000
H2158       H  0.34194409  0.36711033  0.58539155     0.09400
H2159       H  0.36181594  0.33771288  0.64553596     0.10500
H2160       H  0.43520678  0.36701977  0.58230577     0.16300
C2161       C  0.27198744  0.47085018  0.51020641    -0.01900
C2162       C  0.24161682  0.45334605  0.51342679     0.06700
C2163       C  0.23085455  0.43973194  0.53516159    -0.07800
C2164       C  0.24957732  0.44503411  0.55409046     0.04200
C2165       C  0.28003526  0.46471445  0.55153538    -0.15100
C2166       C  0.29081487  0.47648126  0.52913388    -0.08400
C2167       C  0.22098733  0.45165976  0.49518748     0.05100
C2168       C  0.22005224  0.43982278  0.47300874    -0.09500
C2169       C  0.20466868  0.44248621  0.45432040     0.00100
C2170       C  0.18983052  0.45738874  0.45770095     0.00000
C2171       C  0.18868607  0.46674526  0.48052999    -0.13100
C2172       C  0.20409590  0.46416381  0.49908487     0.00400
C2173       C  0.20610400  0.43123862  0.43169621     0.39700
C2174       C  0.20378436  0.47646620  0.52152771     0.36300
C2175       C  0.28427778  0.48455336  0.48793531     0.36100
C2176       C  0.23641071  0.43110350  0.57613249     0.36800
N2177       N  0.20725561  0.42213379  0.41359689    -0.44000
N2178       N  0.20326518  0.48630514  0.53944232    -0.44400
N2179       N  0.22575916  0.41987598  0.59375835    -0.41800
N2180       N  0.29391218  0.49521005  0.46994025    -0.43200
H2181       H  0.31398537  0.49120734  0.52657267     0.13000
H2182       H  0.20754621  0.42582687  0.53762225     0.09400
H2183       H  0.23249691  0.42963530  0.47001948     0.10500
H2184       H  0.17708984  0.47778685  0.48368891     0.16300
C2185       C  0.48906976  0.58181916  0.49038086    -0.01900
C2186       C  0.45926107  0.56320150  0.49582555     0.06700
C2187       C  0.43839841  0.55970975  0.47939630    -0.07800
C2188       C  0.44656961  0.57581881  0.45866863     0.04200
C2189       C  0.47620469  0.59564103  0.45381222    -0.15100
C2190       C  0.49734140  0.59765762  0.46927271    -0.08400
C2191       C  0.44876717  0.55168024  0.51985964     0.05100
C2192       C  0.45571220  0.57195407  0.53790612    -0.09500
C2193       C  0.43995334  0.56384484  0.55888062     0.00100
C2194       C  0.41719813  0.53477787  0.56236228     0.00000
C2195       C  0.41190481  0.51388127  0.54525545    -0.13100
C2196       C  0.42731342  0.52215654  0.52395835     0.00400
C2197       C  0.44638069  0.58630658  0.57579907     0.39700
C2198       C  0.41943656  0.50043011  0.50596405     0.36300
C2199       C  0.51138063  0.58609350  0.50668551     0.36100
C2200       C  0.42395206  0.57271420  0.44324773     0.36800
N2201       N  0.45204590  0.60489489  0.58890974    -0.44000
N2202       N  0.41300753  0.48308350  0.49145429    -0.44400
N2203       N  0.40563257  0.57012993  0.43109890    -0.41800
N2204       N  0.52927957  0.58964374  0.51979874    -0.43200
H2205       H  0.52014850  0.61303145  0.46566166     0.13000
H2206       H  0.41546871  0.54590835  0.48355769     0.09400
H2207       H  0.47178831  0.59473782  0.53482204     0.10500
H2208       H  0.39423952  0.49155001  0.54775528     0.16300
C2209       C  0.46114034  0.71090768  0.65600120    -0.01900
C2210       C  0.45626134  0.69113929  0.63781516     0.06700
C2211       C  0.46584327  0.70159261  0.61504168    -0.07800
C2212       C  0.47870836  0.73112269  0.60988701     0.04200
C2213       C  0.48266808  0.75093811  0.62787920    -0.15100
C2214       C  0.47468264  0.74071443  0.65099716    -0.08400
C2215       C  0.43837600  0.65920278  0.64109536     0.05100
C2216       C  0.40806860  0.64575297  0.64130693    -0.09500
C2217       C  0.39001776  0.61560370  0.63847101     0.00100
C2218       C  0.40242280  0.59846707  0.63501251     0.00000
C2219       C  0.43265659  0.61166999  0.63772153    -0.13100
C2220       C  0.45068555  0.64187787  0.64034098     0.00400
C2221       C  0.35894048  0.60294185  0.63913684     0.39700
C2222       C  0.48177724  0.65480273  0.64120372     0.36300
C2223       C  0.45167586  0.70091176  0.67967793     0.36100
C2224       C  0.48705985  0.74040831  0.58586105     0.36800
N2225       N  0.33404010  0.59276002  0.63986984    -0.44000
N2226       N  0.50669756  0.66516058  0.64195876    -0.44400
N2227       N  0.49351935  0.74793052  0.56661564    -0.41800
N2228       N  0.44403618  0.69282733  0.69865156    -0.43200
H2229       H  0.47762685  0.75575909  0.66489835     0.13000
H2230       H  0.46206764  0.68638386  0.60102366     0.09400
H2231       H  0.39853400  0.65903803  0.64245481     0.10500
H2232       H  0.44249041  0.59870515  0.63620919     0.16300
C2233       C  0.24688297  0.53808277  0.65140205    -0.01900
C2234       C  0.23606666  0.54599756  0.63218994     0.06700
C2235       C  0.24028103  0.53924691  0.60940200    -0.07800
C2236       C  0.25660420  0.52651401  0.60534322     0.04200
C2237       C  0.26909517  0.52011491  0.62441819    -0.15100
C2238       C  0.26314000  0.52498643  0.64742257    -0.08400
C2239       C  0.22288452  0.56395424  0.63471442     0.05100
C2240       C  0.24144794  0.59425945  0.63542760    -0.09500
C2241       C  0.23064267  0.61260884  0.63255400     0.00100
C2242       C  0.20049068  0.60062444  0.62914686     0.00000
C2243       C  0.18179818  0.57013672  0.62992461    -0.13100
C2244       C  0.19276980  0.55186225  0.63235496     0.00400
C2245       C  0.25122399  0.64354957  0.63243148     0.39700
C2246       C  0.17291946  0.52076807  0.63126230     0.36300
C2247       C  0.24211056  0.54385069  0.67518174     0.36100
C2248       C  0.26085836  0.52101940  0.58127711     0.36800
N2249       N  0.26771628  0.66836738  0.63215986    -0.44000
N2250       N  0.15701307  0.49584057  0.63032629    -0.44400
N2251       N  0.26458436  0.51688472  0.56202339    -0.41800
N2252       N  0.23815299  0.54837205  0.69425534    -0.43200
H2253       H  0.27245703  0.52004811  0.66217825     0.13000
H2254       H  0.23175539  0.54509614  0.59461556     0.09400
H2255       H  0.26469930  0.60360910  0.63699230     0.10500
H2256       H  0.15862693  0.56038379  0.62738226     0.16300
loop_ 
_geom_bond_atom_site_label_1 
_geom_bond_atom_site_label_2 
_geom_bond_distance 
_geom_bond_site_symmetry_2 
_ccdc_geom_bond_type 
O1           C16   1.264       .  A
O1           Al9   1.925       .  S
C2           O12   1.261       .  A
C2            O3   1.261       .  A
C2         C2194   1.472       .  S
O3           Al5   1.911       .  S
O4            C6   1.265       .  A
O4           Al5   1.907       .  S
Al5          O13   1.896       .  S
Al5          O15   1.891       .  S
Al5          O14   1.778       .  S
C6           O19   1.264       .  A
C6         C2165   1.497       .  S
O7           C17   1.264       .  A
O7           Al9   1.923       .  S
O8           C21   1.261       .  A
O8          Al18   1.888       .  S
Al9          O22   1.923       .  S
Al9          O19   1.918       .  S
Al9          O14   1.787       .  S
O10          C17   1.262       .  A
O10         Al18   1.904       .  S
O11          C20   1.263       .  A
O11         Al18   1.922       .  S
O12         Al18   1.911       .  S
O13          C20   1.260       .  A
O14         Al18   1.783       .  S
O15          C16   1.259       .  A
C16        C2237   1.483       .  S
C17        C2141   1.488       .  S
C20        C2218   1.488       .  S
C21          O22   1.265       .  A
C21        C2117   1.484       .  S
O23          C38   1.262       .  A
O23         Al31   1.913       .  S
C24          O34   1.266       .  A
C24          O25   1.259       .  A
C24        C2050   1.487       .  S
O25         Al27   1.890       .  S
O26          C28   1.260       .  A
O26         Al27   1.900       .  S
Al27         O35   1.901       .  S
Al27         O37   1.895       .  S
Al27         O36   1.773       .  S
C28          O41   1.265       .  A
C28        C2074   1.481       .  S
O29          C39   1.265       .  A
O29         Al31   1.916       .  S
O30          C43   1.264       .  A
O30         Al40   1.910       .  S
Al31         O44   1.917       .  S
Al31         O41   1.929       .  S
Al31         O36   1.785       .  S
O32          C39   1.265       .  A
O32         Al40   1.914       .  S
O33          C42   1.264       .  A
O33         Al40   1.924       .  S
O34         Al40   1.924       .  S
O35          C42   1.261       .  A
O36         Al40   1.780       .  S
O37          C38   1.259       .  A
C38        C2093   1.465       .  S
C39        C2021   1.491       .  S
C42        C2242   1.493       .  S
C43          O44   1.264       .  A
C43        C1997   1.482       .  S
O45          C60   1.261       .  A
O45         Al53   1.910       .  S
C46          O56   1.259       .  A
C46          O47   1.260       .  A
C46        C1973   1.470       .  S
O47         Al49   1.911       .  S
O48          C50   1.262       .  A
O48         Al49   1.887       .  S
Al49         O57   1.881       .  S
Al49         O59   1.905       .  S
Al49         O58   1.772       .  S
C50          O63   1.269       .  A
C50        C1954   1.496       .  S
O51          C61   1.262       .  A
O51         Al53   1.908       .  S
O52          C65   1.259       .  A
O52         Al62   1.884       .  S
Al53         O66   1.932       .  S
Al53         O63   1.944       .  S
Al53         O58   1.782       .  S
O54          C61   1.262       .  A
O54         Al62   1.903       .  S
O55          C64   1.265       .  A
O55         Al62   1.927       .  S
O56         Al62   1.908       .  S
O57          C64   1.261       .  A
O58         Al62   1.780       .  S
O59          C60   1.260       .  A
C60        C2213   1.478       .  S
C61        C1930   1.477       .  S
C64        C2098   1.488       .  S
C65          O66   1.267       .  A
C65        C1906   1.478       .  S
O67          C82   1.265       .  A
O67         Al75   1.921       .  S
C68          O78   1.260       .  A
C68          O69   1.263       .  A
C68        C2045   1.470       .  S
O69         Al71   1.908       .  S
O70          C72   1.258       .  A
O70         Al71   1.885       .  S
Al71         O79   1.896       .  S
Al71         O81   1.907       .  S
Al71         O80   1.773       .  S
C72          O85   1.265       .  A
C72        C2170   1.494       .  S
O73          C83   1.265       .  A
O73         Al75   1.927       .  S
O74          C87   1.260       .  A
O74         Al84   1.886       .  S
Al75         O88   1.933       .  S
Al75         O85   1.938       .  S
Al75         O80   1.785       .  S
O76          C83   1.260       .  A
O76         Al84   1.898       .  S
O77          C86   1.261       .  A
O77         Al84   1.912       .  S
O78         Al84   1.900       .  S
O79          C86   1.259       .  A
O80         Al84   1.786       .  S
O81          C82   1.263       .  A
C82        C1882   1.482       .  S
C83        C1834   1.476       .  S
C86        C1858   1.481       .  S
C87          O88   1.267       .  A
C87        C1810   1.480       .  S
O89         C104   1.261       .  A
O89         Al97   1.916       .  S
C90         O100   1.262       .  A
C90          O91   1.261       .  A
C90        C1978   1.473       .  S
O91         Al93   1.905       .  S
O92          C94   1.259       .  A
O92         Al93   1.880       .  S
Al93        O101   1.891       .  S
Al93        O103   1.899       .  S
Al93        O102   1.770       .  S
C94         O107   1.271       .  A
C94        C2069   1.495       .  S
O95         C105   1.264       .  A
O95         Al97   1.918       .  S
O96         C109   1.260       .  A
O96        Al106   1.881       .  S
Al97        O110   1.936       .  S
Al97        O107   1.947       .  S
Al97        O102   1.781       .  S
O98         C105   1.261       .  A
O98        Al106   1.901       .  S
O99         C108   1.264       .  A
O99        Al106   1.925       .  S
O100       Al106   1.912       .  S
O101        C108   1.261       .  A
O102       Al106   1.777       .  S
O103        C104   1.258       .  A
C104       C1853   1.474       .  S
C105       C1757   1.488       .  S
C108       C1781   1.489       .  S
C109        O110   1.270       .  A
C109       C1738   1.490       .  S
O111        C126   1.262       .  A
O111       Al119   1.910       .  S
C112        O122   1.261       .  A
C112        O113   1.260       .  A
C112       C2189   1.471       .  S
O113       Al115   1.902       .  S
O114        C116   1.262       .  A
O114       Al115   1.897       .  S
Al115       O123   1.894       .  S
Al115       O125   1.899       .  S
Al115       O124   1.774       .  S
C116        O129   1.265       .  A
C116       C1949   1.492       .  S
O117        C127   1.265       .  A
O117       Al119   1.913       .  S
O118        C131   1.262       .  A
O118       Al128   1.897       .  S
Al119       O132   1.913       .  S
Al119       O129   1.929       .  S
Al119       O124   1.784       .  S
O120        C127   1.264       .  A
O120       Al128   1.901       .  S
O121        C130   1.264       .  A
O121       Al128   1.925       .  S
O122       Al128   1.911       .  S
O123        C130   1.261       .  A
O124       Al128   1.780       .  S
O125        C126   1.261       .  A
C126       C1786   1.472       .  S
C127       C1714   1.480       .  S
C130       C1877   1.495       .  S
C131        O132   1.262       .  A
C131       C1685   1.487       .  S
O133        C148   1.258       .  A
O133       Al141   1.885       .  S
C134        O144   1.263       .  A
C134        O135   1.269       .  A
C134       C1613   1.486       .  S
O135       Al137   1.938       .  S
O136        C138   1.258       .  A
O136       Al137   1.876       .  S
Al137       O145   1.913       .  S
Al137       O147   1.925       .  S
Al137       O146   1.782       .  S
C138        O151   1.264       .  A
C138       C1709   1.480       .  S
O139        C149   1.260       .  A
O139       Al141   1.924       .  S
O140        C153   1.261       .  A
O140       Al150   1.875       .  S
Al141       O154   1.942       .  S
Al141       O151   1.928       .  S
Al141       O146   1.785       .  S
O142        C149   1.257       .  A
O142       Al150   1.898       .  S
O143        C152   1.257       .  A
O143       Al150   1.898       .  S
O144       Al150   1.880       .  S
O145        C152   1.259       .  A
O146       Al150   1.773       .  S
O147        C148   1.265       .  A
C148       C1570   1.497       .  S
C149       C1589   1.482       .  S
C152       C1642   1.482       .  S
C153        O154   1.272       .  A
C153       C1661   1.487       .  S
O155        C170   1.261       .  A
O155       Al163   1.898       .  S
C156        O166   1.264       .  A
C156        O157   1.263       .  A
C156       C1618   1.484       .  S
O157       Al159   1.912       .  S
O158        C160   1.257       .  A
O158       Al159   1.879       .  S
Al159       O167   1.913       .  S
Al159       O169   1.906       .  S
Al159       O168   1.782       .  S
C160        O173   1.268       .  A
C160       C2146   1.487       .  S
O161        C171   1.265       .  A
O161       Al163   1.932       .  S
O162        C175   1.263       .  A
O162       Al172   1.885       .  S
Al163       O176   1.950       .  S
Al163       O173   1.947       .  S
Al163       O168   1.788       .  S
O164        C171   1.259       .  A
O164       Al172   1.899       .  S
O165        C174   1.259       .  A
O165       Al172   1.904       .  S
O166       Al172   1.891       .  S
O167        C174   1.260       .  A
O168       Al172   1.772       .  S
O169        C170   1.262       .  A
C170       C1469   1.481       .  S
C171       C1493   1.487       .  S
C174       C1517   1.485       .  S
C175        O176   1.270       .  A
C175       C1541   1.491       .  S
O177        C192   1.258       .  A
O177       Al185   1.889       .  S
C178        O188   1.265       .  A
C178        O179   1.266       .  A
C178       C1421   1.483       .  S
O179       Al181   1.920       .  S
O180        C182   1.256       .  A
O180       Al181   1.865       .  S
Al181       O189   1.907       .  S
Al181       O191   1.905       .  S
Al181       O190   1.781       .  S
C182        O195   1.268       .  A
C182       C1762   1.483       .  S
O183        C193   1.262       .  A
O183       Al185   1.925       .  S
O184        C197   1.263       .  A
O184       Al194   1.879       .  S
Al185       O198   1.950       .  S
Al185       O195   1.943       .  S
Al185       O190   1.786       .  S
O186        C193   1.258       .  A
O186       Al194   1.904       .  S
O187        C196   1.260       .  A
O187       Al194   1.909       .  S
O188       Al194   1.891       .  S
O189        C196   1.258       .  A
O190       Al194   1.772       .  S
O191        C192   1.261       .  A
C192       C1397   1.488       .  S
C193       C1498   1.489       .  S
C196       C1445   1.483       .  S
C197        O198   1.273       .  A
C197       C1637   1.481       .  S
O199        C214   1.259       .  A
O199       Al207   1.889       .  S
C200        O210   1.264       .  A
C200        O201   1.269       .  A
C200       C1349   1.485       .  S
O201       Al203   1.921       .  S
O202        C204   1.257       .  A
O202       Al203   1.879       .  S
Al203       O211   1.910       .  S
Al203       O213   1.907       .  S
Al203       O212   1.779       .  S
C204        O217   1.266       .  A
C204       C2026   1.486       .  S
O205        C215   1.261       .  A
O205       Al207   1.926       .  S
O206        C219   1.261       .  A
O206       Al216   1.872       .  S
Al207       O220   1.961       .  S
Al207       O217   1.939       .  S
Al207       O212   1.787       .  S
O208        C215   1.256       .  A
O208       Al216   1.903       .  S
O209        C218   1.255       .  A
O209       Al216   1.897       .  S
O210       Al216   1.887       .  S
O211        C218   1.258       .  A
O212       Al216   1.777       .  S
O213        C214   1.261       .  A
C214       C1325   1.472       .  S
C215       C1594   1.482       .  S
C218       C1373   1.485       .  S
C219        O220   1.275       .  A
C219       C1522   1.481       .  S
O221        C236   1.261       .  A
O221       Al229   1.893       .  S
C222        O232   1.264       .  A
C222        O223   1.268       .  A
C222       C1354   1.477       .  S
O223       Al225   1.918       .  S
O224        C226   1.257       .  A
O224       Al225   1.883       .  S
Al225       O233   1.919       .  S
Al225       O235   1.900       .  S
Al225       O234   1.784       .  S
C226        O239   1.264       .  A
C226       C1829   1.490       .  S
O227        C237   1.262       .  A
O227       Al229   1.930       .  S
O228        C241   1.264       .  A
O228       Al238   1.885       .  S
Al229       O242   1.938       .  S
Al229       O239   1.924       .  S
Al229       O234   1.786       .  S
O230        C237   1.256       .  A
O230       Al238   1.894       .  S
O231        C240   1.255       .  A
O231       Al238   1.893       .  S
O232       Al238   1.884       .  S
O233        C240   1.258       .  A
O234       Al238   1.774       .  S
O235        C236   1.260       .  A
C236       C1282   1.488       .  S
C237       C1301   1.486       .  S
C240       C1666   1.479       .  S
C241        O242   1.270       .  A
C241       C1450   1.479       .  S
O243        C258   1.263       .  A
O243       Al251   1.895       .  S
C244        O254   1.263       .  A
C244        O245   1.266       .  A
C244       C1426   1.482       .  S
O245       Al247   1.921       .  S
O246        C248   1.258       .  A
O246       Al247   1.885       .  S
Al247       O255   1.915       .  S
Al247       O257   1.914       .  S
Al247       O256   1.779       .  S
C248        O261   1.262       .  A
C248       C1925   1.484       .  S
O249        C259   1.263       .  A
O249       Al251   1.919       .  S
O250        C263   1.263       .  A
O250       Al260   1.895       .  S
Al251       O264   1.936       .  S
Al251       O261   1.921       .  S
Al251       O256   1.785       .  S
O252        C259   1.261       .  A
O252       Al260   1.914       .  S
O253        C262   1.259       .  A
O253       Al260   1.912       .  S
O254       Al260   1.887       .  S
O255        C262   1.259       .  A
O256       Al260   1.774       .  S
O257        C258   1.264       .  A
C258       C1253   1.484       .  S
C259       C1306   1.476       .  S
C262       C1546   1.481       .  S
C263        O264   1.267       .  A
C263       C1378   1.471       .  S
O265        C280   1.266       .  A
O265       Al273   1.926       .  S
C266        O276   1.261       .  A
C266        O267   1.261       .  A
C266       C1181   1.466       .  S
O267       Al269   1.902       .  S
O268        C270   1.260       .  A
O268       Al269   1.897       .  S
Al269       O277   1.890       .  S
Al269       O279   1.893       .  S
Al269       O278   1.774       .  S
C270        O283   1.265       .  A
C270       C1157   1.499       .  S
O271        C281   1.268       .  A
O271       Al273   1.929       .  S
O272        C285   1.262       .  A
O272       Al282   1.898       .  S
Al273       O286   1.932       .  S
Al273       O283   1.936       .  S
Al273       O278   1.786       .  S
O274        C281   1.264       .  A
O274       Al282   1.908       .  S
O275        C284   1.262       .  A
O275       Al282   1.921       .  S
O276       Al282   1.907       .  S
O277        C284   1.259       .  A
O278       Al282   1.782       .  S
O279        C280   1.261       .  A
C280       C1234   1.486       .  S
C281       C1133   1.493       .  S
C284       C1205   1.490       .  S
C285        O286   1.267       .  A
C285       C1565   1.488       .  S
O287        C302   1.262       .  A
O287       Al295   1.919       .  S
C288        O298   1.262       .  A
C288        O289   1.261       .  A
C288       C1186   1.474       .  S
O289       Al291   1.906       .  S
O290        C292   1.262       .  A
O290       Al291   1.891       .  S
Al291       O299   1.897       .  S
Al291       O301   1.893       .  S
Al291       O300   1.776       .  S
C292        O305   1.267       .  A
C292       C1066   1.489       .  S
O293        C303   1.262       .  A
O293       Al295   1.918       .  S
O294        C307   1.262       .  A
O294       Al304   1.884       .  S
Al295       O308   1.926       .  S
Al295       O305   1.923       .  S
Al295       O300   1.784       .  S
O296        C303   1.261       .  A
O296       Al304   1.905       .  S
O297        C306   1.265       .  A
O297       Al304   1.926       .  S
O298       Al304   1.909       .  S
O299        C306   1.261       .  A
O300       Al304   1.781       .  S
O301        C302   1.258       .  A
C302       C1109   1.481       .  S
C303       C1037   1.482       .  S
C306       C1090   1.486       .  S
C307        O308   1.267       .  A
C307       C1474   1.490       .  S
O309        C324   1.257       .  A
O309       Al317   1.901       .  S
C310        O320   1.263       .  A
C310        O311   1.263       .  A
C310        C965   1.473       .  S
O311       Al313   1.911       .  S
O312        C314   1.260       .  A
O312       Al313   1.886       .  S
Al313       O321   1.894       .  S
Al313       O323   1.901       .  S
Al313       O322   1.777       .  S
C314        O327   1.269       .  A
C314        C989   1.496       .  S
O315        C325   1.263       .  A
O315       Al317   1.918       .  S
O316        C329   1.262       .  A
O316       Al326   1.890       .  S
Al317       O330   1.929       .  S
Al317       O327   1.941       .  S
Al317       O322   1.785       .  S
O318        C325   1.261       .  A
O318       Al326   1.908       .  S
O319        C328   1.265       .  A
O319       Al326   1.929       .  S
O320       Al326   1.910       .  S
O321        C328   1.260       .  A
O322       Al326   1.783       .  S
O323        C324   1.259       .  A
C324       C1018   1.465       .  S
C325        C941   1.486       .  S
C328       C1114   1.491       .  S
C329        O330   1.268       .  A
C329       C1258   1.477       .  S
O331        C346   1.264       .  A
O331       Al339   1.915       .  S
C332        O342   1.258       .  A
C332        O333   1.262       .  A
C332        C917   1.466       .  S
O333       Al335   1.909       .  S
O334        C336   1.261       .  A
O334       Al335   1.894       .  S
Al335       O343   1.883       .  S
Al335       O345   1.905       .  S
Al335       O344   1.774       .  S
C336        O349   1.265       .  A
C336       C1162   1.498       .  S
O337        C347   1.266       .  A
O337       Al339   1.921       .  S
O338        C351   1.260       .  A
O338       Al348   1.888       .  S
Al339       O352   1.926       .  S
Al339       O349   1.936       .  S
Al339       O344   1.786       .  S
O340        C347   1.262       .  A
O340       Al348   1.895       .  S
O341        C350   1.262       .  A
O341       Al348   1.919       .  S
O342       Al348   1.898       .  S
O343        C350   1.258       .  A
O344       Al348   1.783       .  S
O345        C346   1.263       .  A
C346       C1085   1.482       .  S
C347        C893   1.474       .  S
C350       C1013   1.482       .  S
C351        O352   1.265       .  A
C351       C1330   1.483       .  S
O353        C368   1.265       .  A
O353       Al361   1.923       .  S
C354        O364   1.257       .  A
C354        O355   1.262       .  A
C354        C970   1.470       .  S
O355       Al357   1.915       .  S
O356        C358   1.261       .  A
O356       Al357   1.890       .  S
Al357       O365   1.887       .  S
Al357       O367   1.899       .  S
Al357       O366   1.775       .  S
C358        O371   1.266       .  A
C358       C1061   1.486       .  S
O359        C369   1.266       .  A
O359       Al361   1.923       .  S
O360        C373   1.259       .  A
O360       Al370   1.885       .  S
Al361       O374   1.926       .  S
Al361       O371   1.927       .  S
Al361       O366   1.785       .  S
O362        C369   1.263       .  A
O362       Al370   1.904       .  S
O363        C372   1.263       .  A
O363       Al370   1.914       .  S
O364       Al370   1.894       .  S
O365        C372   1.258       .  A
O366       Al370   1.776       .  S
O367        C368   1.260       .  A
C368       C1210   1.471       .  S
C369        C845   1.486       .  S
C372        C874   1.486       .  S
C373        O374   1.265       .  A
C373       C1402   1.477       .  S
O375        C390   1.259       .  A
O375       Al383   1.899       .  S
C376        O386   1.261       .  A
C376        O377   1.263       .  A
C376        C922   1.474       .  S
O377       Al379   1.906       .  S
O378        C380   1.260       .  A
O378       Al379   1.889       .  S
Al379       O387   1.894       .  S
Al379       O389   1.905       .  S
Al379       O388   1.772       .  S
C380        O393   1.268       .  A
C380        C994   1.494       .  S
O381        C391   1.261       .  A
O381       Al383   1.900       .  S
O382        C395   1.259       .  A
O382       Al392   1.882       .  S
Al383       O396   1.929       .  S
Al383       O393   1.941       .  S
Al383       O388   1.782       .  S
O384        C391   1.265       .  A
O384       Al392   1.919       .  S
O385        C394   1.267       .  A
O385       Al392   1.935       .  S
O386       Al392   1.905       .  S
O387        C394   1.260       .  A
O388       Al392   1.780       .  S
O389        C390   1.261       .  A
C390        C869   1.469       .  S
C391        C821   1.480       .  S
C394       C1229   1.496       .  S
C395        O396   1.267       .  A
C395       C1277   1.482       .  S
O397        C412   1.259       .  A
O397       Al405   1.890       .  S
C398        O408   1.264       .  A
C398        O399   1.268       .  A
C398        C749   1.473       .  S
O399       Al401   1.929       .  S
O400        C402   1.256       .  A
O400       Al401   1.875       .  S
Al401       O409   1.917       .  S
Al401       O411   1.911       .  S
Al401       O410   1.785       .  S
C402        O415   1.266       .  A
C402       C1042   1.487       .  S
O403        C413   1.261       .  A
O403       Al405   1.926       .  S
O404        C417   1.265       .  A
O404       Al414   1.886       .  S
Al405       O418   1.947       .  S
Al405       O415   1.937       .  S
Al405       O410   1.789       .  S
O406        C413   1.255       .  A
O406       Al414   1.896       .  S
O407        C416   1.255       .  A
O407       Al414   1.898       .  S
O408       Al414   1.887       .  S
O409        C416   1.259       .  A
O410       Al414   1.774       .  S
O411        C412   1.263       .  A
C412       C2122   1.494       .  S
C413        C730   1.490       .  S
C416        C778   1.485       .  S
C417        O418   1.273       .  A
C417        C797   1.485       .  S
O419        C434   1.258       .  A
O419       Al427   1.896       .  S
C420        O430   1.262       .  A
C420        O421   1.262       .  A
C420        C653   1.486       .  S
O421       Al423   1.910       .  S
O422        C424   1.257       .  A
O422       Al423   1.871       .  S
Al423       O431   1.906       .  S
Al423       O433   1.898       .  S
Al423       O432   1.785       .  S
C424        O437   1.266       .  A
C424        C826   1.477       .  S
O425        C435   1.258       .  A
O425       Al427   1.915       .  S
O426        C439   1.259       .  A
O426       Al436   1.872       .  S
Al427       O440   1.938       .  S
Al427       O437   1.933       .  S
Al427       O432   1.797       .  S
O428        C435   1.255       .  A
O428       Al436   1.890       .  S
O429        C438   1.261       .  A
O429       Al436   1.906       .  S
O430       Al436   1.892       .  S
O431        C438   1.259       .  A
O432       Al436   1.780       .  S
O433        C434   1.258       .  A
C434       C1805   1.477       .  S
C435        C725   1.474       .  S
C438        C677   1.492       .  S
C439        O440   1.268       .  A
C439        C701   1.466       .  S
O441        C456   1.261       .  A
O441       Al449   1.896       .  S
C442        O452   1.261       .  A
C442        O443   1.268       .  A
C442        C658   1.487       .  S
O443       Al445   1.934       .  S
O444        C446   1.259       .  A
O444       Al445   1.887       .  S
Al445       O453   1.919       .  S
Al445       O455   1.918       .  S
Al445       O454   1.786       .  S
C446        O459   1.263       .  A
C446        C898   1.483       .  S
O447        C457   1.263       .  A
O447       Al449   1.929       .  S
O448        C461   1.261       .  A
O448       Al458   1.879       .  S
Al449       O462   1.933       .  S
Al449       O459   1.919       .  S
Al449       O454   1.789       .  S
O450        C457   1.256       .  A
O450       Al458   1.892       .  S
O451        C460   1.257       .  A
O451       Al458   1.891       .  S
O452       Al458   1.875       .  S
O453        C460   1.260       .  A
O454       Al458   1.772       .  S
O455        C456   1.265       .  A
C456       C2002   1.498       .  S
C457        C605   1.480       .  S
C460        C802   1.493       .  S
C461        O462   1.268       .  A
C461        C629   1.477       .  S
O463        C478   1.260       .  A
O463       Al471   1.892       .  S
C464        O474   1.264       .  A
C464        O465   1.269       .  A
C464        C586   1.484       .  S
O465       Al467   1.929       .  S
O466        C468   1.256       .  A
O466       Al467   1.874       .  S
Al467       O475   1.907       .  S
Al467       O477   1.908       .  S
Al467       O476   1.779       .  S
C468        O481   1.267       .  A
C468        C946   1.486       .  S
O469        C479   1.261       .  A
O469       Al471   1.928       .  S
O470        C483   1.262       .  A
O470       Al480   1.869       .  S
Al471       O484   1.961       .  S
Al471       O481   1.942       .  S
Al471       O476   1.784       .  S
O472        C479   1.256       .  A
O472       Al480   1.902       .  S
O473        C482   1.257       .  A
O473       Al480   1.905       .  S
O474       Al480   1.880       .  S
O475        C482   1.256       .  A
O476       Al480   1.776       .  S
O477        C478   1.262       .  A
C478       C1901   1.481       .  S
C479        C562   1.479       .  S
C482        C634   1.475       .  S
C483        O484   1.276       .  A
C483        C773   1.489       .  S
O485        C500   1.260       .  A
O485       Al493   1.894       .  S
C486        O496   1.259       .  A
C486        O487   1.266       .  A
C486        C581   1.473       .  S
O487       Al489   1.934       .  S
O488        C490   1.258       .  A
O488       Al489   1.874       .  S
Al489       O497   1.910       .  S
Al489       O499   1.911       .  S
Al489       O498   1.782       .  S
C490        O503   1.267       .  A
C490        C850   1.477       .  S
O491        C501   1.263       .  A
O491       Al493   1.920       .  S
O492        C505   1.261       .  A
O492       Al502   1.876       .  S
Al493       O506   1.947       .  S
Al493       O503   1.947       .  S
Al493       O498   1.784       .  S
O494        C501   1.260       .  A
O494       Al502   1.908       .  S
O495        C504   1.262       .  A
O495       Al502   1.914       .  S
O496       Al502   1.871       .  S
O497        C504   1.260       .  A
O498       Al502   1.768       .  S
O499        C500   1.262       .  A
C500       C1733   1.487       .  S
C501        C610   1.490       .  S
C504        C533   1.479       .  S
C505        O506   1.271       .  A
C505        C682   1.484       .  S
O507        C522   1.260       .  A
O507       Al515   1.883       .  S
C508        O518   1.260       .  A
C508        O509   1.268       .  A
C508        C754   1.487       .  S
O509       Al511   1.926       .  S
O510        C512   1.255       .  A
O510       Al511   1.875       .  S
Al511       O519   1.903       .  S
Al511       O521   1.919       .  S
Al511       O520   1.780       .  S
C512        O525   1.267       .  A
C512       C1138   1.488       .  S
O513        C523   1.264       .  A
O513       Al515   1.921       .  S
O514        C527   1.261       .  A
O514       Al524   1.881       .  S
Al515       O528   1.956       .  S
Al515       O525   1.947       .  S
Al515       O520   1.785       .  S
O516        C523   1.260       .  A
O516       Al524   1.901       .  S
O517        C526   1.260       .  A
O517       Al524   1.903       .  S
O518       Al524   1.877       .  S
O519        C526   1.258       .  A
O520       Al524   1.770       .  S
O521        C522   1.265       .  A
C522       C1690   1.481       .  S
C523        C557   1.484       .  S
C526        C706   1.485       .  S
C527        O528   1.271       .  A
C527        C538   1.495       .  S
C529        C530   1.411       .  A
C529        C534   1.396       .  A
C529        C543   1.442       .  S
C530        C535   1.490       .  S
C530        C531   1.408       .  A
C531        C532   1.407       .  A
C531        H550   1.084       .  S
C532        C533   1.411       .  A
C532        C544   1.444       .  S
C533        C534   1.402       .  A
C534        H549   1.086       .  S
C535        C536   1.405       .  A
C535        C540   1.409       .  A
C536        C537   1.408       .  A
C536        H551   1.085       .  S
C537        C538   1.418       .  A
C537        C541   1.443       .  S
C538        C539   1.409       .  A
C539        C540   1.398       .  A
C539        H552   1.085       .  S
C540        C542   1.445       .  S
C541        N545   1.157       .  T
C542        N546   1.157       .  T
C543        N548   1.157       .  T
C544        N547   1.157       .  T
C553        C554   1.415       .  A
C553        C558   1.406       .  A
C553        C567   1.443       .  S
C554        C559   1.491   1_554  S
C554        C555   1.402       .  A
C555        C556   1.398       .  A
C555        H574   1.085       .  S
C556        C557   1.416       .  A
C556        C568   1.444       .  S
C557        C558   1.403       .  A
C558        H573   1.084       .  S
C559        C560   1.401       .  A
C559        C564   1.414       .  A
C560        C561   1.397       .  A
C560        H575   1.085       .  S
C561        C562   1.412       .  A
C561        C565   1.442       .  S
C562        C563   1.404       .  A
C563        C564   1.408       .  A
C563        H576   1.084       .  S
C564        C566   1.443   1_556  S
C565        N569   1.156       .  T
C566        N570   1.157       .  T
C567        N572   1.157       .  T
C568        N571   1.157       .  T
C577        C578   1.409       .  A
C577        C582   1.393       .  A
C577        C591   1.445   1_554  S
C578        C583   1.477   1_554  S
C578        C579   1.403       .  A
C579        C580   1.399       .  A
C579        H598   1.085       .  S
C580        C581   1.413       .  A
C580        C592   1.444       .  S
C581        C582   1.403       .  A
C582        H597   1.085       .  S
C583        C584   1.400       .  A
C583        C588   1.409   1_556  A
C584        C585   1.399       .  A
C584        H599   1.085       .  S
C585        C586   1.419       .  A
C585        C589   1.444       .  S
C586        C587   1.407       .  A
C587        C588   1.393   1_556  A
C587        H600   1.084       .  S
C588        C590   1.446       .  S
C589        N593   1.157       .  T
C590        N594   1.157       .  T
C591        N596   1.157       .  T
C592        N595   1.157       .  T
C601        C602   1.410       .  A
C601        C606   1.399       .  A
C601        C615   1.445   1_556  S
C602        C607   1.489   1_556  S
C602        C603   1.407       .  A
C603        C604   1.409       .  A
C603        H622   1.084       .  S
C604        C605   1.410       .  A
C604        C616   1.443       .  S
C605        C606   1.405       .  A
C606        H621   1.085       .  S
C607        C608   1.400       .  A
C607        C612   1.411       .  A
C608        C609   1.399       .  A
C608        H623   1.085   1_554  S
C609        C610   1.418       .  A
C609        C613   1.445       .  S
C610        C611   1.407       .  A
C611        C612   1.408       .  A
C611        H624   1.084       .  S
C612        C614   1.442       .  S
C613        N617   1.157       .  T
C614        N618   1.157       .  T
C615        N620   1.157       .  T
C616        N619   1.157       .  T
C625        C626   1.412       .  A
C625        C630   1.400       .  A
C625        C639   1.444       .  S
C626        C631   1.484       .  S
C626        C627   1.402       .  A
C627        C628   1.399       .  A
C627        H646   1.085       .  S
C628        C629   1.414       .  A
C628        C640   1.445       .  S
C629        C630   1.403       .  A
C630        H645   1.085       .  S
C631        C632   1.401       .  A
C631        C636   1.412       .  A
C632        C633   1.394       .  A
C632        H647   1.085       .  S
C633        C634   1.413       .  A
C633        C637   1.446       .  S
C634        C635   1.405       .  A
C635        C636   1.405       .  A
C635        H648   1.085       .  S
C636        C638   1.443       .  S
C637        N641   1.157       .  T
C638        N642   1.157       .  T
C639        N644   1.157       .  T
C640        N643   1.157       .  T
C649        C650   1.409       .  A
C649        C654   1.398       .  A
C649        C663   1.445   1_554  S
C650        C655   1.479   1_554  S
C650        C651   1.399       .  A
C651        C652   1.398       .  A
C651        H670   1.085       .  S
C652        C653   1.421       .  A
C652        C664   1.445       .  S
C653        C654   1.407       .  A
C654        H669   1.085       .  S
C655        C656   1.401       .  A
C655        C660   1.408       .  A
C656        C657   1.402       .  A
C656        H671   1.085       .  S
C657        C658   1.418       .  A
C657        C661   1.443       .  S
C658        C659   1.408       .  A
C659        C660   1.393       .  A
C659        H672   1.085       .  S
C660        C662   1.446   1_556  S
C661        N665   1.157       .  T
C662        N666   1.157       .  T
C663        N668   1.157       .  T
C664        N667   1.157       .  T
C673        C674   1.409       .  A
C673        C678   1.395       .  A
C673        C687   1.445       .  S
C674        C679   1.486       .  S
C674        C675   1.403       .  A
C675        C676   1.406       .  A
C675        H694   1.084       .  S
C676        C677   1.419       .  A
C676        C688   1.443       .  S
C677        C678   1.408       .  A
C678        H693   1.084       .  S
C679        C680   1.404       .  A
C679        C684   1.409       .  A
C680        C681   1.404       .  A
C680        H695   1.085       .  S
C681        C682   1.415       .  A
C681        C685   1.444       .  S
C682        C683   1.407       .  A
C683        C684   1.398       .  A
C683        H696   1.085       .  S
C684        C686   1.445       .  S
C685        N689   1.157       .  T
C686        N690   1.157       .  T
C687        N692   1.157       .  T
C688        N691   1.157       .  T
C697        C698   1.409       .  A
C697        C702   1.401       .  A
C697        C711   1.443       .  S
C698        C703   1.480       .  S
C698        C699   1.402       .  A
C699        C700   1.399       .  A
C699        H718   1.085       .  S
C700        C701   1.409       .  A
C700        C712   1.444       .  S
C701        C702   1.403       .  A
C702        H717   1.086       .  S
C703        C704   1.400       .  A
C703        C708   1.409       .  A
C704        C705   1.404       .  A
C704        H719   1.093       .  S
C705        C706   1.417       .  A
C705        C709   1.443       .  S
C706        C707   1.405       .  A
C707        C708   1.395       .  A
C707        H720   1.093       .  S
C708        C710   1.446       .  S
C709        N713   1.157       .  T
C710        N714   1.157       .  T
C711        N716   1.157       .  T
C712        N715   1.157       .  T
C721        C722   1.410       .  A
C721        C726   1.400       .  A
C721        C735   1.444   1_554  S
C722        C727   1.486   1_554  S
C722        C723   1.405       .  A
C723        C724   1.405       .  A
C723        H742   1.084       .  S
C724        C725   1.409       .  A
C724        C736   1.443       .  S
C725        C726   1.403       .  A
C726        H741   1.085       .  S
C727        C728   1.398       .  A
C727        C732   1.410       .  A
C728        C729   1.395       .  A
C728        H743   1.086   1_556  S
C729        C730   1.419       .  A
C729        C733   1.446       .  S
C730        C731   1.409       .  A
C731        C732   1.410       .  A
C731        H744   1.084       .  S
C732        C734   1.442       .  S
C733        N737   1.157       .  T
C734        N738   1.157       .  T
C735        N740   1.157       .  T
C736        N739   1.157       .  T
C745        C746   1.413       .  A
C745        C750   1.398       .  A
C745        C759   1.444       .  S
C746        C751   1.485   1_556  S
C746        C747   1.405       .  A
C747        C748   1.397       .  A
C747        H766   1.084   1_556  S
C748        C749   1.409       .  A
C748        C760   1.444       .  S
C749        C750   1.403       .  A
C750        H765   1.085       .  S
C751        C752   1.402       .  A
C751        C756   1.409       .  A
C752        C753   1.396       .  A
C752        H767   1.085   1_554  S
C753        C754   1.419       .  A
C753        C757   1.446       .  S
C754        C755   1.408       .  A
C755        C756   1.400       .  A
C755        H768   1.084       .  S
C756        C758   1.444       .  S
C757        N761   1.158       .  T
C758        N762   1.157       .  T
C759        N764   1.157       .  T
C760        N763   1.157       .  T
C769        C770   1.409       .  A
C769        C774   1.405       .  A
C769        C783   1.443       .  S
C770        C775   1.482       .  S
C770        C771   1.398       .  A
C771        C772   1.397       .  A
C771        H790   1.085       .  S
C772        C773   1.419       .  A
C772        C784   1.445       .  S
C773        C774   1.407       .  A
C774        H789   1.084       .  S
C775        C776   1.398       .  A
C775        C780   1.409       .  A
C776        C777   1.396       .  A
C776        H791   1.085       .  S
C777        C778   1.419       .  A
C777        C781   1.446       .  S
C778        C779   1.406       .  A
C779        C780   1.406       .  A
C779        H792   1.084       .  S
C780        C782   1.442       .  S
C781        N785   1.157       .  T
C782        N786   1.157       .  T
C783        N788   1.157       .  T
C784        N787   1.157       .  T
C793        C794   1.409       .  A
C793        C798   1.399       .  A
C793        C807   1.445       .  S
C794        C799   1.483       .  S
C794        C795   1.402       .  A
C795        C796   1.404       .  A
C795        H814   1.085       .  S
C796        C797   1.416       .  A
C796        C808   1.444       .  S
C797        C798   1.406       .  A
C798        H813   1.085       .  S
C799        C800   1.404       .  A
C799        C804   1.406       .  A
C800        C801   1.410       .  A
C800        H815   1.084       .  S
C801        C802   1.418       .  A
C801        C805   1.443       .  S
C802        C803   1.409       .  A
C803        C804   1.392       .  A
C803        H816   1.084       .  S
C804        C806   1.446       .  S
C805        N809   1.157       .  T
C806        N810   1.157       .  T
C807        N812   1.157       .  T
C808        N811   1.157       .  T
C817        C818   1.412       .  A
C817        C822   1.404       .  A
C817        C831   1.443       .  S
C818        C823   1.488   1_655  S
C818        C819   1.403       .  A
C819        C820   1.397       .  A
C819        H838   1.085       .  S
C820        C821   1.413       .  A
C820        C832   1.445       .  S
C821        C822   1.405       .  A
C822        H837   1.085       .  S
C823        C824   1.402       .  A
C823        C828   1.413       .  A
C824        C825   1.397       .  A
C824        H839   1.085       .  S
C825        C826   1.413       .  A
C825        C829   1.445       .  S
C826        C827   1.403       .  A
C827        C828   1.404       .  A
C827        H840   1.085       .  S
C828        C830   1.443       .  S
C829        N833   1.157       .  T
C830        N834   1.157       .  T
C831        N836   1.157       .  T
C832        N835   1.157       .  T
C841        C842   1.414       .  A
C841        C846   1.411       .  A
C841        C855   1.442       .  S
C842        C847   1.493   1_545  S
C842        C843   1.400       .  A
C843        C844   1.391       .  A
C843        H862   1.086       .  S
C844        C845   1.415       .  A
C844        C856   1.444       .  S
C845        C846   1.408       .  A
C846        H861   1.084       .  S
C847        C848   1.406       .  A
C847        C852   1.416       .  A
C848        C849   1.399       .  A
C848        H863   1.085       .  S
C849        C850   1.410       .  A
C849        C853   1.445       .  S
C850        C851   1.403       .  A
C851        C852   1.407       .  A
C851        H864   1.085       .  S
C852        C854   1.443       .  S
C853        N857   1.157       .  T
C854        N858   1.157   1_565  T
C855        N860   1.157       .  T
C856        N859   1.157       .  T
C865        C866   1.408       .  A
C865        C870   1.402       .  A
C865        C879   1.443       .  S
C866        C871   1.474       .  S
C866        C867   1.399       .  A
C867        C868   1.393       .  A
C867        H886   1.085       .  S
C868        C869   1.411       .  A
C868        C880   1.445       .  S
C869        C870   1.404       .  A
C870        H885   1.085       .  S
C871        C872   1.399       .  A
C871        C876   1.404       .  A
C872        C873   1.398       .  A
C872        H887   1.085       .  S
C873        C874   1.418       .  A
C873        C877   1.445       .  S
C874        C875   1.410       .  A
C875        C876   1.399       .  A
C875        H888   1.084       .  S
C876        C878   1.444       .  S
C877        N881   1.157       .  T
C878        N882   1.157       .  T
C879        N884   1.157       .  T
C880        N883   1.157       .  T
C889        C890   1.415       .  A
C889        C894   1.406       .  A
C889        C903   1.443       .  S
C890        C895   1.491   1_655  S
C890        C891   1.402       .  A
C891        C892   1.394       .  A
C891        H910   1.085       .  S
C892        C893   1.412       .  A
C892        C904   1.446       .  S
C893        C894   1.402       .  A
C894        H909   1.084       .  S
C895        C896   1.405       .  A
C895        C900   1.413       .  A
C896        C897   1.400       .  A
C896        H911   1.085       .  S
C897        C898   1.413       .  A
C897        C901   1.445       .  S
C898        C899   1.405       .  A
C899        C900   1.402       .  A
C899        H912   1.085       .  S
C900        C902   1.444       .  S
C901        N905   1.157       .  T
C902        N906   1.157       .  T
C903        N908   1.157       .  T
C904        N907   1.157       .  T
C913        C914   1.412       .  A
C913        C918   1.401       .  A
C913        C927   1.444   1_556  S
C914        C919   1.482   1_556  S
C914        C915   1.403       .  A
C915        C916   1.398       .  A
C915        H934   1.085       .  S
C916        C917   1.408       .  A
C916        C928   1.445       .  S
C917        C918   1.401       .  A
C918        H933   1.085       .  S
C919        C920   1.401       .  A
C919        C924   1.411       .  A
C920        C921   1.393       .  A
C920        H935   1.085       .  S
C921        C922   1.412       .  A
C921        C925   1.446       .  S
C922        C923   1.405       .  A
C923        C924   1.405       .  A
C923        H936   1.085       .  S
C924        C926   1.443       .  S
C925        N929   1.157       .  T
C926        N930   1.157       .  T
C927        N932   1.157       .  T
C928        N931   1.157       .  T
C937        C938   1.413       .  A
C937        C942   1.408       .  A
C937        C951   1.442       .  S
C938        C943   1.491       .  S
C938        C939   1.400       .  A
C939        C940   1.397       .  A
C939        H958   1.085       .  S
C940        C941   1.415       .  A
C940        C952   1.443       .  S
C941        C942   1.406       .  A
C942        H957   1.084       .  S
C943        C944   1.402   1_545  A
C943        C948   1.413   1_545  A
C944        C945   1.400       .  A
C944        H959   1.085   1_565  S
C945        C946   1.416       .  A
C945        C949   1.444       .  S
C946        C947   1.405       .  A
C947        C948   1.406       .  A
C947        H960   1.085       .  S
C948        C950   1.443       .  S
C949        N953   1.157       .  T
C950        N954   1.157   1_565  T
C951        N956   1.157       .  T
C952        N955   1.156       .  T
C961        C962   1.411       .  A
C961        C966   1.405       .  A
C961        C975   1.443       .  S
C962        C967   1.480   1_556  S
C962        C963   1.399       .  A
C963        C964   1.393       .  A
C963        H982   1.086       .  S
C964        C965   1.412       .  A
C964        C976   1.443       .  S
C965        C966   1.404       .  A
C966        H981   1.085       .  S
C967        C968   1.402       .  A
C967        C972   1.411       .  A
C968        C969   1.397       .  A
C968        H983   1.085       .  S
C969        C970   1.409       .  A
C969        C973   1.444       .  S
C970        C971   1.402       .  A
C971        C972   1.402       .  A
C971        H984   1.085       .  S
C972        C974   1.443       .  S
C973        N977   1.157       .  T
C974        N978   1.157   1_554  T
C975        N980   1.157   1_556  T
C976        N979   1.156       .  T
C985        C986   1.409       .  A
C985        C990   1.405       .  A
C985        C999   1.443       .  S
C986        C991   1.491   1_556  S
C986        C987   1.402       .  A
C987        C988   1.402       .  A
C987       H1006   1.085   1_556  S
C988        C989   1.420       .  A
C988       C1000   1.445       .  S
C989        C990   1.410       .  A
C990       H1005   1.084       .  S
C991        C992   1.402       .  A
C991        C996   1.409       .  A
C992        C993   1.402       .  A
C992       H1007   1.085   1_554  S
C993        C994   1.419       .  A
C993        C997   1.445       .  S
C994        C995   1.409       .  A
C995        C996   1.404       .  A
C995       H1008   1.084       .  S
C996        C998   1.443       .  S
C997       N1001   1.158       .  T
C998       N1002   1.157       .  T
C999       N1004   1.157       .  T
C1000      N1003   1.158       .  T
C1009      C1010   1.408       .  A
C1009      C1014   1.393       .  A
C1009      C1023   1.445       .  S
C1010      C1015   1.478       .  S
C1010      C1011   1.401       .  A
C1011      C1012   1.405       .  A
C1011      H1030   1.084       .  S
C1012      C1013   1.417       .  A
C1012      C1024   1.444       .  S
C1013      C1014   1.404       .  A
C1014      H1029   1.085       .  S
C1015      C1016   1.404       .  A
C1015      C1020   1.410       .  A
C1016      C1017   1.402       .  A
C1016      H1031   1.085       .  S
C1017      C1018   1.409       .  A
C1017      C1021   1.444       .  S
C1018      C1019   1.400       .  A
C1019      C1020   1.396       .  A
C1019      H1032   1.086       .  S
C1020      C1022   1.445       .  S
C1021      N1025   1.157       .  T
C1022      N1026   1.157       .  T
C1023      N1028   1.157       .  T
C1024      N1027   1.157       .  T
C1033      C1034   1.415       .  A
C1033      C1038   1.408       .  A
C1033      C1047   1.443       .  S
C1034      C1039   1.494       .  S
C1034      C1035   1.403       .  A
C1035      C1036   1.399       .  A
C1035      H1054   1.085       .  S
C1036      C1037   1.413       .  A
C1036      C1048   1.445       .  S
C1037      C1038   1.404       .  A
C1038      H1053   1.084       .  S
C1039      C1040   1.402       .  A
C1039      C1044   1.414       .  A
C1040      C1041   1.399       .  A
C1040      H1055   1.085       .  S
C1041      C1042   1.415       .  A
C1041      C1045   1.445       .  S
C1042      C1043   1.405       .  A
C1043      C1044   1.407       .  A
C1043      H1056   1.084       .  S
C1044      C1046   1.443       .  S
C1045      N1049   1.157       .  T
C1046      N1050   1.157       .  T
C1047      N1052   1.157       .  T
C1048      N1051   1.157       .  T
C1057      C1058   1.409       .  A
C1057      C1062   1.402       .  A
C1057      C1071   1.444       .  S
C1058      C1063   1.488   1_554  S
C1058      C1059   1.404       .  A
C1059      C1060   1.400       .  A
C1059      H1078   1.085   1_554  S
C1060      C1061   1.414       .  A
C1060      C1072   1.445       .  S
C1061      C1062   1.409       .  A
C1062      H1077   1.084       .  S
C1063      C1064   1.404   1_556  A
C1063      C1068   1.409       .  A
C1064      C1065   1.402   1_554  A
C1064      H1079   1.085       .  S
C1065      C1066   1.417       .  A
C1065      C1069   1.445       .  S
C1066      C1067   1.408       .  A
C1067      C1068   1.399       .  A
C1067      H1080   1.084       .  S
C1068      C1070   1.444       .  S
C1069      N1073   1.158       .  T
C1070      N1074   1.157       .  T
C1071      N1076   1.157       .  T
C1072      N1075   1.157       .  T
C1081      C1082   1.410       .  A
C1081      C1086   1.407       .  A
C1081      C1095   1.443       .  S
C1082      C1087   1.483       .  S
C1082      C1083   1.400       .  A
C1083      C1084   1.395       .  A
C1083      H1102   1.085       .  S
C1084      C1085   1.415       .  A
C1084      C1096   1.445       .  S
C1085      C1086   1.407       .  A
C1086      H1101   1.084       .  S
C1087      C1088   1.402       .  A
C1087      C1092   1.408       .  A
C1088      C1089   1.403       .  A
C1088      H1103   1.085       .  S
C1089      C1090   1.415       .  A
C1089      C1093   1.445       .  S
C1090      C1091   1.407       .  A
C1091      C1092   1.400       .  A
C1091      H1104   1.084       .  S
C1092      C1094   1.444       .  S
C1093      N1097   1.158       .  T
C1094      N1098   1.157       .  T
C1095      N1100   1.157       .  T
C1096      N1099   1.157       .  T
C1105      C1106   1.409       .  A
C1105      C1110   1.406       .  A
C1105      C1119   1.442       .  S
C1106      C1111   1.481       .  S
C1106      C1107   1.399       .  A
C1107      C1108   1.397       .  A
C1107      H1126   1.085       .  S
C1108      C1109   1.417       .  A
C1108      C1120   1.446       .  S
C1109      C1110   1.405       .  A
C1110      H1125   1.084       .  S
C1111      C1112   1.400       .  A
C1111      C1116   1.406       .  A
C1112      C1113   1.400       .  A
C1112      H1127   1.085       .  S
C1113      C1114   1.418       .  A
C1113      C1117   1.444       .  S
C1114      C1115   1.410       .  A
C1115      C1116   1.402       .  A
C1115      H1128   1.084       .  S
C1116      C1118   1.443       .  S
C1117      N1121   1.157       .  T
C1118      N1122   1.157       .  T
C1119      N1124   1.157       .  T
C1120      N1123   1.157       .  T
C1129      C1130   1.410       .  A
C1129      C1134   1.398       .  A
C1129      C1143   1.445       .  S
C1130      C1135   1.493       .  S
C1130      C1131   1.407       .  A
C1131      C1132   1.410       .  A
C1131      H1150   1.084       .  S
C1132      C1133   1.415       .  A
C1132      C1144   1.443       .  S
C1133      C1134   1.408       .  A
C1134      H1149   1.085       .  S
C1135      C1136   1.406       .  A
C1135      C1140   1.410       .  A
C1136      C1137   1.406       .  A
C1136      H1151   1.085       .  S
C1137      C1138   1.414       .  A
C1137      C1141   1.444       .  S
C1138      C1139   1.407       .  A
C1139      C1140   1.402       .  A
C1139      H1152   1.085       .  S
C1140      C1142   1.444       .  S
C1141      N1145   1.157       .  T
C1142      N1146   1.157       .  T
C1143      N1148   1.157       .  T
C1144      N1147   1.157       .  T
C1153      C1154   1.412       .  A
C1153      C1158   1.403       .  A
C1153      C1167   1.444   1_554  S
C1154      C1159   1.497   1_554  S
C1154      C1155   1.403       .  A
C1155      C1156   1.406       .  A
C1155      H1174   1.085       .  S
C1156      C1157   1.420       .  A
C1156      C1168   1.443       .  S
C1157      C1158   1.409       .  A
C1158      H1173   1.085       .  S
C1159      C1160   1.404       .  A
C1159      C1164   1.412       .  A
C1160      C1161   1.407       .  A
C1160      H1175   1.085       .  S
C1161      C1162   1.420       .  A
C1161      C1165   1.443       .  S
C1162      C1163   1.408       .  A
C1163      C1164   1.401       .  A
C1163      H1176   1.085       .  S
C1164      C1166   1.443   1_556  S
C1165      N1169   1.157       .  T
C1166      N1170   1.157       .  T
C1167      N1172   1.157       .  T
C1168      N1171   1.157       .  T
C1177      C1178   1.411       .  A
C1177      C1182   1.402       .  A
C1177      C1191   1.443       .  S
C1178      C1183   1.482   1_554  S
C1178      C1179   1.403       .  A
C1179      C1180   1.398       .  A
C1179      H1198   1.085       .  S
C1180      C1181   1.409       .  A
C1180      C1192   1.445       .  S
C1181      C1182   1.401       .  A
C1182      H1197   1.085       .  S
C1183      C1184   1.402       .  A
C1183      C1188   1.410       .  A
C1184      C1185   1.396       .  A
C1184      H1199   1.085       .  S
C1185      C1186   1.413       .  A
C1185      C1189   1.446       .  S
C1186      C1187   1.404       .  A
C1187      C1188   1.404       .  A
C1187      H1200   1.085       .  S
C1188      C1190   1.442       .  S
C1189      N1193   1.157       .  T
C1190      N1194   1.157   1_556  T
C1191      N1196   1.157   1_554  T
C1192      N1195   1.157       .  T
C1201      C1202   1.409       .  A
C1201      C1206   1.397       .  A
C1201      C1215   1.445       .  S
C1202      C1207   1.483       .  S
C1202      C1203   1.401       .  A
C1203      C1204   1.405       .  A
C1203      H1222   1.085       .  S
C1204      C1205   1.419       .  A
C1204      C1216   1.444       .  S
C1205      C1206   1.407       .  A
C1206      H1221   1.085       .  S
C1207      C1208   1.405       .  A
C1207      C1212   1.409       .  A
C1208      C1209   1.405       .  A
C1208      H1223   1.084       .  S
C1209      C1210   1.409       .  A
C1209      C1213   1.443       .  S
C1210      C1211   1.403       .  A
C1211      C1212   1.397       .  A
C1211      H1224   1.085       .  S
C1212      C1214   1.445       .  S
C1213      N1217   1.157       .  T
C1214      N1218   1.157       .  T
C1215      N1220   1.157       .  T
C1216      N1219   1.157       .  T
C1225      C1226   1.407       .  A
C1225      C1230   1.404       .  A
C1225      C1239   1.443       .  S
C1226      C1231   1.485       .  S
C1226      C1227   1.401       .  A
C1227      C1228   1.402       .  A
C1227      H1246   1.085       .  S
C1228      C1229   1.420       .  A
C1228      C1240   1.445       .  S
C1229      C1230   1.410       .  A
C1230      H1245   1.084       .  S
C1231      C1232   1.398       .  A
C1231      C1236   1.411       .  A
C1232      C1233   1.395       .  A
C1232      H1247   1.085       .  S
C1233      C1234   1.417       .  A
C1233      C1237   1.446       .  S
C1234      C1235   1.407       .  A
C1235      C1236   1.409       .  A
C1235      H1248   1.084       .  S
C1236      C1238   1.442       .  S
C1237      N1241   1.157       .  T
C1238      N1242   1.157       .  T
C1239      N1244   1.157       .  T
C1240      N1243   1.158       .  T
C1249      C1250   1.417       .  A
C1249      C1254   1.402       .  A
C1249      C1263   1.444       .  S
C1250      C1255   1.499       .  S
C1250      C1251   1.406       .  A
C1251      C1252   1.399       .  A
C1251      H1270   1.084       .  S
C1252      C1253   1.414       .  A
C1252      C1264   1.445       .  S
C1253      C1254   1.404       .  A
C1254      H1269   1.085       .  S
C1255      C1256   1.408       .  A
C1255      C1260   1.417       .  A
C1256      C1257   1.402       .  A
C1256      H1271   1.084       .  S
C1257      C1258   1.410       .  A
C1257      C1261   1.443       .  S
C1258      C1259   1.401       .  A
C1259      C1260   1.400       .  A
C1259      H1272   1.084       .  S
C1260      C1262   1.444       .  S
C1261      N1265   1.157       .  T
C1262      N1266   1.157       .  T
C1263      N1268   1.157       .  T
C1264      N1267   1.158       .  T
C1273      C1274   1.408       .  A
C1273      C1278   1.399       .  A
C1273      C1287   1.444       .  S
C1274      C1279   1.479       .  S
C1274      C1275   1.400       .  A
C1275      C1276   1.400       .  A
C1275      H1294   1.085       .  S
C1276      C1277   1.417       .  A
C1276      C1288   1.445       .  S
C1277      C1278   1.406       .  A
C1278      H1293   1.085       .  S
C1279      C1280   1.400       .  A
C1279      C1284   1.406       .  A
C1280      C1281   1.401       .  A
C1280      H1295   1.085       .  S
C1281      C1282   1.420       .  A
C1281      C1285   1.445       .  S
C1282      C1283   1.408       .  A
C1283      C1284   1.398       .  A
C1283      H1296   1.085       .  S
C1284      C1286   1.444       .  S
C1285      N1289   1.158       .  T
C1286      N1290   1.157       .  T
C1287      N1292   1.157       .  T
C1288      N1291   1.158       .  T
C1297      C1298   1.411       .  A
C1297      C1302   1.396       .  A
C1297      C1311   1.445       .  S
C1298      C1303   1.493       .  S
C1298      C1299   1.408       .  A
C1299      C1300   1.410       .  A
C1299      H1318   1.084       .  S
C1300      C1301   1.412       .  A
C1300      C1312   1.443       .  S
C1301      C1302   1.406       .  A
C1302      H1317   1.085       .  S
C1303      C1304   1.408       .  A
C1303      C1308   1.412       .  A
C1304      C1305   1.406       .  A
C1304      H1319   1.084       .  S
C1305      C1306   1.409       .  A
C1305      C1309   1.444       .  S
C1306      C1307   1.402       .  A
C1307      C1308   1.400       .  A
C1307      H1320   1.084       .  S
C1308      C1310   1.444       .  S
C1309      N1313   1.157       .  T
C1310      N1314   1.157       .  T
C1311      N1316   1.157       .  T
C1312      N1315   1.157       .  T
C1321      C1322   1.413       .  A
C1321      C1326   1.399       .  A
C1321      C1335   1.444       .  S
C1322      C1327   1.487       .  S
C1322      C1323   1.404       .  A
C1323      C1324   1.398       .  A
C1323      H1342   1.089       .  S
C1324      C1325   1.409       .  A
C1324      C1336   1.443       .  S
C1325      C1326   1.401       .  A
C1326      H1341   1.092       .  S
C1327      C1328   1.403       .  A
C1327      C1332   1.411       .  A
C1328      C1329   1.399       .  A
C1328      H1343   1.086       .  S
C1329      C1330   1.414       .  A
C1329      C1333   1.444       .  S
C1330      C1331   1.407       .  A
C1331      C1332   1.400       .  A
C1331      H1344   1.085       .  S
C1332      C1334   1.445       .  S
C1333      N1337   1.157       .  T
C1334      N1338   1.157       .  T
C1335      N1340   1.157       .  T
C1336      N1339   1.157       .  T
C1345      C1346   1.405       .  A
C1345      C1350   1.396       .  A
C1345      C1359   1.444       .  S
C1346      C1351   1.477       .  S
C1346      C1347   1.402       .  A
C1347      C1348   1.398       .  A
C1347      H1366   1.085       .  S
C1348      C1349   1.418       .  A
C1348      C1360   1.446       .  S
C1349      C1350   1.410       .  A
C1350      H1365   1.084       .  S
C1351      C1352   1.402       .  A
C1351      C1356   1.407       .  A
C1352      C1353   1.396       .  A
C1352      H1367   1.085       .  S
C1353      C1354   1.413       .  A
C1353      C1357   1.445       .  S
C1354      C1355   1.407       .  A
C1355      C1356   1.397       .  A
C1355      H1368   1.084       .  S
C1356      C1358   1.444       .  S
C1357      N1361   1.157       .  T
C1358      N1362   1.157       .  T
C1359      N1364   1.157       .  T
C1360      N1363   1.158       .  T
C1369      C1370   1.408       .  A
C1369      C1374   1.405       .  A
C1369      C1383   1.443       .  S
C1370      C1375   1.480       .  S
C1370      C1371   1.398       .  A
C1371      C1372   1.394       .  A
C1371      H1390   1.086       .  S
C1372      C1373   1.418       .  A
C1372      C1384   1.445       .  S
C1373      C1374   1.408       .  A
C1374      H1389   1.084       .  S
C1375      C1376   1.402       .  A
C1375      C1380   1.411       .  A
C1376      C1377   1.400       .  A
C1376      H1391   1.085       .  S
C1377      C1378   1.408       .  A
C1377      C1381   1.441       .  S
C1378      C1379   1.402       .  A
C1379      C1380   1.400       .  A
C1379      H1392   1.084       .  S
C1380      C1382   1.444       .  S
C1381      N1385   1.156       .  T
C1382      N1386   1.157       .  T
C1383      N1388   1.157       .  T
C1384      N1387   1.157       .  T
C1393      C1394   1.406       .  A
C1393      C1398   1.399       .  A
C1393      C1407   1.444       .  S
C1394      C1399   1.478       .  S
C1394      C1395   1.399       .  A
C1395      C1396   1.400       .  A
C1395      H1414   1.085       .  S
C1396      C1397   1.419       .  A
C1396      C1408   1.444       .  S
C1397      C1398   1.409       .  A
C1398      H1413   1.084       .  S
C1399      C1400   1.401       .  A
C1399      C1404   1.408       .  A
C1400      C1401   1.401       .  A
C1400      H1415   1.085       .  S
C1401      C1402   1.414       .  A
C1401      C1405   1.445       .  S
C1402      C1403   1.404       .  A
C1403      C1404   1.398       .  A
C1403      H1416   1.085       .  S
C1404      C1406   1.444       .  S
C1405      N1409   1.157       .  T
C1406      N1410   1.157       .  T
C1407      N1412   1.157       .  T
C1408      N1411   1.157       .  T
C1417      C1418   1.408       .  A
C1417      C1422   1.393       .  A
C1417      C1431   1.446       .  S
C1418      C1423   1.474       .  S
C1418      C1419   1.398       .  A
C1419      C1420   1.401       .  A
C1419      H1438   1.085       .  S
C1420      C1421   1.420       .  A
C1420      C1432   1.445       .  S
C1421      C1422   1.405       .  A
C1422      H1437   1.085       .  S
C1423      C1424   1.399       .  A
C1423      C1428   1.407       .  A
C1424      C1425   1.399       .  A
C1424      H1439   1.085       .  S
C1425      C1426   1.418       .  A
C1425      C1429   1.444       .  S
C1426      C1427   1.407       .  A
C1427      C1428   1.396       .  A
C1427      H1440   1.085       .  S
C1428      C1430   1.445       .  S
C1429      N1433   1.157       .  T
C1430      N1434   1.157       .  T
C1431      N1436   1.157       .  T
C1432      N1435   1.158       .  T
C1441      C1442   1.409       .  A
C1441      C1446   1.392       .  A
C1441      C1455   1.446       .  S
C1442      C1447   1.482       .  S
C1442      C1443   1.404       .  A
C1443      C1444   1.408       .  A
C1443      H1462   1.084       .  S
C1444      C1445   1.416       .  A
C1444      C1456   1.444       .  S
C1445      C1446   1.405       .  A
C1446      H1461   1.085       .  S
C1447      C1448   1.404       .  A
C1447      C1452   1.408       .  A
C1448      C1449   1.401       .  A
C1448      H1463   1.085       .  S
C1449      C1450   1.414       .  A
C1449      C1453   1.445       .  S
C1450      C1451   1.405       .  A
C1451      C1452   1.399       .  A
C1451      H1464   1.085       .  S
C1452      C1454   1.444       .  S
C1453      N1457   1.157       .  T
C1454      N1458   1.157       .  T
C1455      N1460   1.157       .  T
C1456      N1459   1.157       .  T
C1465      C1466   1.408       .  A
C1465      C1470   1.398       .  A
C1465      C1479   1.444       .  S
C1466      C1471   1.480       .  S
C1466      C1467   1.401       .  A
C1467      C1468   1.401       .  A
C1467      H1486   1.085       .  S
C1468      C1469   1.415       .  A
C1468      C1480   1.444       .  S
C1469      C1470   1.406       .  A
C1470      H1485   1.085       .  S
C1471      C1472   1.400       .  A
C1471      C1476   1.407       .  A
C1472      C1473   1.402       .  A
C1472      H1487   1.085       .  S
C1473      C1474   1.419       .  A
C1473      C1477   1.444       .  S
C1474      C1475   1.409       .  A
C1475      C1476   1.398       .  A
C1475      H1488   1.084       .  S
C1476      C1478   1.444       .  S
C1477      N1481   1.157       .  T
C1478      N1482   1.157       .  T
C1479      N1484   1.157       .  T
C1480      N1483   1.157       .  T
C1489      C1490   1.412       .  A
C1489      C1494   1.411       .  A
C1489      C1503   1.442       .  S
C1490      C1495   1.487       .  S
C1490      C1491   1.398       .  A
C1491      C1492   1.396       .  A
C1491      H1510   1.086       .  S
C1492      C1493   1.416       .  A
C1492      C1504   1.443       .  S
C1493      C1494   1.407       .  A
C1494      H1509   1.084       .  S
C1495      C1496   1.399       .  A
C1495      C1500   1.411       .  A
C1496      C1497   1.398       .  A
C1496      H1511   1.085       .  S
C1497      C1498   1.418       .  A
C1497      C1501   1.445       .  S
C1498      C1499   1.407       .  A
C1499      C1500   1.410       .  A
C1499      H1512   1.084       .  S
C1500      C1502   1.442       .  S
C1501      N1505   1.157       .  T
C1502      N1506   1.157       .  T
C1503      N1508   1.157       .  T
C1504      N1507   1.156       .  T
C1513      C1514   1.410       .  A
C1513      C1518   1.407       .  A
C1513      C1527   1.442       .  S
C1514      C1519   1.485       .  S
C1514      C1515   1.400       .  A
C1515      C1516   1.396       .  A
C1515      H1534   1.085       .  S
C1516      C1517   1.418       .  A
C1516      C1528   1.446       .  S
C1517      C1518   1.407       .  A
C1518      H1533   1.084       .  S
C1519      C1520   1.401       .  A
C1519      C1524   1.411       .  A
C1520      C1521   1.400       .  A
C1520      H1535   1.085       .  S
C1521      C1522   1.415       .  A
C1521      C1525   1.445       .  S
C1522      C1523   1.402       .  A
C1523      C1524   1.404       .  A
C1523      H1536   1.084       .  S
C1524      C1526   1.443       .  S
C1525      N1529   1.157       .  T
C1526      N1530   1.157       .  T
C1527      N1532   1.157       .  T
C1528      N1531   1.157       .  T
C1537      C1538   1.410       .  A
C1537      C1542   1.398       .  A
C1537      C1551   1.445       .  S
C1538      C1543   1.491       .  S
C1538      C1539   1.405       .  A
C1539      C1540   1.408       .  A
C1539      H1558   1.084       .  S
C1540      C1541   1.418       .  A
C1540      C1552   1.444       .  S
C1541      C1542   1.406       .  A
C1542      H1557   1.085       .  S
C1543      C1544   1.406       .  A
C1543      C1548   1.412       .  A
C1544      C1545   1.405       .  A
C1544      H1559   1.085       .  S
C1545      C1546   1.411       .  A
C1545      C1549   1.441       .  S
C1546      C1547   1.404       .  A
C1547      C1548   1.400       .  A
C1547      H1560   1.085       .  S
C1548      C1550   1.444       .  S
C1549      N1553   1.157       .  T
C1550      N1554   1.157       .  T
C1551      N1556   1.157       .  T
C1552      N1555   1.157       .  T
C1561      C1562   1.411       .  A
C1561      C1566   1.403       .  A
C1561      C1575   1.444       .  S
C1562      C1567   1.490       .  S
C1562      C1563   1.403       .  A
C1563      C1564   1.403       .  A
C1563      H1582   1.085       .  S
C1564      C1565   1.416       .  A
C1564      C1576   1.444       .  S
C1565      C1566   1.407       .  A
C1566      H1581   1.085       .  S
C1567      C1568   1.400       .  A
C1567      C1572   1.410       .  A
C1568      C1569   1.402       .  A
C1568      H1583   1.085       .  S
C1569      C1570   1.422       .  A
C1569      C1573   1.445       .  S
C1570      C1571   1.409       .  A
C1571      C1572   1.403       .  A
C1571      H1584   1.084       .  S
C1572      C1574   1.444       .  S
C1573      N1577   1.157       .  T
C1574      N1578   1.157       .  T
C1575      N1580   1.157       .  T
C1576      N1579   1.157       .  T
C1585      C1586   1.413       .  A
C1585      C1590   1.408       .  A
C1585      C1599   1.443       .  S
C1586      C1591   1.488       .  S
C1586      C1587   1.400       .  A
C1587      C1588   1.397       .  A
C1587      H1606   1.085       .  S
C1588      C1589   1.415       .  A
C1588      C1600   1.446       .  S
C1589      C1590   1.405       .  A
C1590      H1605   1.084       .  S
C1591      C1592   1.400       .  A
C1591      C1596   1.413       .  A
C1592      C1593   1.399       .  A
C1592      H1607   1.085       .  S
C1593      C1594   1.415       .  A
C1593      C1597   1.443       .  S
C1594      C1595   1.404       .  A
C1595      C1596   1.407       .  A
C1595      H1608   1.085       .  S
C1596      C1598   1.443       .  S
C1597      N1601   1.156       .  T
C1598      N1602   1.157       .  T
C1599      N1604   1.157       .  T
C1600      N1603   1.157       .  T
C1609      C1610   1.410       .  A
C1609      C1614   1.395       .  A
C1609      C1623   1.446       .  S
C1610      C1615   1.482       .  S
C1610      C1611   1.402       .  A
C1611      C1612   1.401       .  A
C1611      H1630   1.085       .  S
C1612      C1613   1.418       .  A
C1612      C1624   1.444       .  S
C1613      C1614   1.407       .  A
C1614      H1629   1.085       .  S
C1615      C1616   1.401       .  A
C1615      C1620   1.411       .  A
C1616      C1617   1.399       .  A
C1616      H1631   1.085       .  S
C1617      C1618   1.420       .  A
C1617      C1621   1.445       .  S
C1618      C1619   1.404       .  A
C1619      C1620   1.395       .  A
C1619      H1632   1.085       .  S
C1620      C1622   1.444       .  S
C1621      N1625   1.157       .  T
C1622      N1626   1.157       .  T
C1623      N1628   1.157       .  T
C1624      N1627   1.157       .  T
C1633      C1634   1.412       .  A
C1633      C1638   1.402       .  A
C1633      C1647   1.444       .  S
C1634      C1639   1.487       .  S
C1634      C1635   1.402       .  A
C1635      C1636   1.400       .  A
C1635      H1654   1.085       .  S
C1636      C1637   1.414       .  A
C1636      C1648   1.445       .  S
C1637      C1638   1.404       .  A
C1638      H1653   1.085       .  S
C1639      C1640   1.401       .  A
C1639      C1644   1.412       .  A
C1640      C1641   1.396       .  A
C1640      H1655   1.085       .  S
C1641      C1642   1.416       .  A
C1641      C1645   1.446       .  S
C1642      C1643   1.405       .  A
C1643      C1644   1.406       .  A
C1643      H1656   1.084       .  S
C1644      C1646   1.443       .  S
C1645      N1649   1.157       .  T
C1646      N1650   1.157       .  T
C1647      N1652   1.157       .  T
C1648      N1651   1.157       .  T
C1657      C1658   1.407       .  A
C1657      C1662   1.401       .  A
C1657      C1671   1.443       .  S
C1658      C1663   1.480       .  S
C1658      C1659   1.400       .  A
C1659      C1660   1.399       .  A
C1659      H1678   1.085       .  S
C1660      C1661   1.419       .  A
C1660      C1672   1.446       .  S
C1661      C1662   1.407       .  A
C1662      H1677   1.084       .  S
C1663      C1664   1.398       .  A
C1663      C1668   1.409       .  A
C1664      C1665   1.394       .  A
C1664      H1679   1.085       .  S
C1665      C1666   1.415       .  A
C1665      C1669   1.446       .  S
C1666      C1667   1.406       .  A
C1667      C1668   1.407       .  A
C1667      H1680   1.084       .  S
C1668      C1670   1.442       .  S
C1669      N1673   1.157       .  T
C1670      N1674   1.157       .  T
C1671      N1676   1.157       .  T
C1672      N1675   1.158       .  T
C1681      C1682   1.407       .  A
C1681      C1686   1.400       .  A
C1681      C1695   1.444       .  S
C1682      C1687   1.477       .  S
C1682      C1683   1.398       .  A
C1683      C1684   1.399       .  A
C1683      H1702   1.085       .  S
C1684      C1685   1.420       .  A
C1684      C1696   1.445       .  S
C1685      C1686   1.407       .  A
C1686      H1701   1.085       .  S
C1687      C1688   1.399       .  A
C1687      C1692   1.407       .  A
C1688      C1689   1.398       .  A
C1688      H1703   1.085       .  S
C1689      C1690   1.417       .  A
C1689      C1693   1.445       .  S
C1690      C1691   1.407       .  A
C1691      C1692   1.400       .  A
C1691      H1704   1.085       .  S
C1692      C1694   1.443       .  S
C1693      N1697   1.157       .  T
C1694      N1698   1.157       .  T
C1695      N1700   1.157       .  T
C1696      N1699   1.157       .  T
C1705      C1706   1.410       .  A
C1705      C1710   1.397       .  A
C1705      C1719   1.445       .  S
C1706      C1711   1.486       .  S
C1706      C1707   1.406       .  A
C1707      C1708   1.404       .  A
C1707      H1726   1.085       .  S
C1708      C1709   1.413       .  A
C1708      C1720   1.444       .  S
C1709      C1710   1.404       .  A
C1710      H1725   1.085       .  S
C1711      C1712   1.407       .  A
C1711      C1716   1.410       .  A
C1712      C1713   1.407       .  A
C1712      H1727   1.084       .  S
C1713      C1714   1.412       .  A
C1713      C1717   1.443       .  S
C1714      C1715   1.404       .  A
C1715      C1716   1.393       .  A
C1715      H1728   1.085       .  S
C1716      C1718   1.446       .  S
C1717      N1721   1.157       .  T
C1718      N1722   1.157       .  T
C1719      N1724   1.157       .  T
C1720      N1723   1.157       .  T
C1729      C1730   1.407       .  A
C1729      C1734   1.401       .  A
C1729      C1743   1.444       .  S
C1730      C1735   1.480       .  S
C1730      C1731   1.400       .  A
C1731      C1732   1.400       .  A
C1731      H1750   1.085       .  S
C1732      C1733   1.418       .  A
C1732      C1744   1.444       .  S
C1733      C1734   1.408       .  A
C1734      H1749   1.085       .  S
C1735      C1736   1.398       .  A
C1735      C1740   1.407       .  A
C1736      C1737   1.399       .  A
C1736      H1751   1.085       .  S
C1737      C1738   1.421       .  A
C1737      C1741   1.445       .  S
C1738      C1739   1.409       .  A
C1739      C1740   1.402       .  A
C1739      H1752   1.084       .  S
C1740      C1742   1.443       .  S
C1741      N1745   1.157       .  T
C1742      N1746   1.157       .  T
C1743      N1748   1.157       .  T
C1744      N1747   1.157       .  T
C1753      C1754   1.409       .  A
C1753      C1758   1.396       .  A
C1753      C1767   1.445       .  S
C1754      C1759   1.488   1_565  S
C1754      C1755   1.405       .  A
C1755      C1756   1.408       .  A
C1755      H1774   1.084       .  S
C1756      C1757   1.414       .  A
C1756      C1768   1.443       .  S
C1757      C1758   1.407       .  A
C1758      H1773   1.085       .  S
C1759      C1760   1.406       .  A
C1759      C1764   1.409       .  A
C1760      C1761   1.405       .  A
C1760      H1775   1.085       .  S
C1761      C1762   1.412       .  A
C1761      C1765   1.443       .  S
C1762      C1763   1.407       .  A
C1763      C1764   1.399       .  A
C1763      H1776   1.085       .  S
C1764      C1766   1.445       .  S
C1765      N1769   1.157       .  T
C1766      N1770   1.157       .  T
C1767      N1772   1.157   1_565  T
C1768      N1771   1.157       .  T
C1777      C1778   1.407       .  A
C1777      C1782   1.397       .  A
C1777      C1791   1.445       .  S
C1778      C1783   1.477       .  S
C1778      C1779   1.399       .  A
C1779      C1780   1.401       .  A
C1779      H1798   1.085       .  S
C1780      C1781   1.421       .  A
C1780      C1792   1.444       .  S
C1781      C1782   1.408       .  A
C1782      H1797   1.085       .  S
C1783      C1784   1.403       .  A
C1783      C1788   1.408       .  A
C1784      C1785   1.405       .  A
C1784      H1799   1.084       .  S
C1785      C1786   1.412       .  A
C1785      C1789   1.444       .  S
C1786      C1787   1.403       .  A
C1787      C1788   1.393       .  A
C1787      H1800   1.085       .  S
C1788      C1790   1.445       .  S
C1789      N1793   1.157       .  T
C1790      N1794   1.157       .  T
C1791      N1796   1.157       .  T
C1792      N1795   1.157       .  T
C1801      C1802   1.412       .  A
C1801      C1806   1.401       .  A
C1801      C1815   1.444       .  S
C1802      C1807   1.489       .  S
C1802      C1803   1.405       .  A
C1803      C1804   1.401       .  A
C1803      H1822   1.085       .  S
C1804      C1805   1.410       .  A
C1804      C1816   1.443       .  S
C1805      C1806   1.404       .  A
C1806      H1821   1.084       .  S
C1807      C1808   1.404       .  A
C1807      C1812   1.412       .  A
C1808      C1809   1.401       .  A
C1808      H1823   1.085       .  S
C1809      C1810   1.414       .  A
C1809      C1813   1.444       .  S
C1810      C1811   1.403       .  A
C1811      C1812   1.401       .  A
C1811      H1824   1.084       .  S
C1812      C1814   1.444       .  S
C1813      N1817   1.157       .  T
C1814      N1818   1.157       .  T
C1815      N1820   1.157       .  T
C1816      N1819   1.157       .  T
C1825      C1826   1.412       .  A
C1825      C1830   1.404       .  A
C1825      C1839   1.443       .  S
C1826      C1831   1.493   1_655  S
C1826      C1827   1.404       .  A
C1827      C1828   1.401       .  A
C1827      H1846   1.085       .  S
C1828      C1829   1.417       .  A
C1828      C1840   1.445       .  S
C1829      C1830   1.407       .  A
C1830      H1845   1.084       .  S
C1831      C1832   1.404       .  A
C1831      C1836   1.414       .  A
C1832      C1833   1.398       .  A
C1832      H1847   1.085       .  S
C1833      C1834   1.411       .  A
C1833      C1837   1.445       .  S
C1834      C1835   1.403       .  A
C1835      C1836   1.406       .  A
C1835      H1848   1.085       .  S
C1836      C1838   1.443       .  S
C1837      N1841   1.157       .  T
C1838      N1842   1.157       .  T
C1839      N1844   1.157       .  T
C1840      N1843   1.158       .  T
C1849      C1850   1.411       .  A
C1849      C1854   1.405       .  A
C1849      C1863   1.443       .  S
C1850      C1855   1.483       .  S
C1850      C1851   1.400       .  A
C1851      C1852   1.395       .  A
C1851      H1870   1.085       .  S
C1852      C1853   1.413       .  A
C1852      C1864   1.444       .  S
C1853      C1854   1.403       .  A
C1854      H1869   1.085       .  S
C1855      C1856   1.403       .  A
C1855      C1860   1.409       .  A
C1856      C1857   1.401       .  A
C1856      H1871   1.085       .  S
C1857      C1858   1.414       .  A
C1857      C1861   1.445       .  S
C1858      C1859   1.406       .  A
C1859      C1860   1.399       .  A
C1859      H1872   1.084       .  S
C1860      C1862   1.444       .  S
C1861      N1865   1.157       .  T
C1862      N1866   1.157       .  T
C1863      N1868   1.157       .  T
C1864      N1867   1.157       .  T
C1873      C1874   1.408       .  A
C1873      C1878   1.397       .  A
C1873      C1887   1.445       .  S
C1874      C1879   1.484       .  S
C1874      C1875   1.401       .  A
C1875      C1876   1.406       .  A
C1875      H1894   1.085       .  S
C1876      C1877   1.422       .  A
C1876      C1888   1.444       .  S
C1877      C1878   1.408       .  A
C1878      H1893   1.085       .  S
C1879      C1880   1.403       .  A
C1879      C1884   1.408       .  A
C1880      C1881   1.407       .  A
C1880      H1895   1.084       .  S
C1881      C1882   1.413       .  A
C1881      C1885   1.441       .  S
C1882      C1883   1.406       .  A
C1883      C1884   1.397       .  A
C1883      H1896   1.085       .  S
C1884      C1886   1.444       .  S
C1885      N1889   1.157       .  T
C1886      N1890   1.157       .  T
C1887      N1892   1.157       .  T
C1888      N1891   1.157       .  T
C1897      C1898   1.413       .  A
C1897      C1902   1.401       .  A
C1897      C1911   1.444       .  S
C1898      C1903   1.492       .  S
C1898      C1899   1.405       .  A
C1899      C1900   1.402       .  A
C1899      H1918   1.085       .  S
C1900      C1901   1.412       .  A
C1900      C1912   1.444       .  S
C1901      C1902   1.405       .  A
C1902      H1917   1.085       .  S
C1903      C1904   1.404       .  A
C1903      C1908   1.415       .  A
C1904      C1905   1.400       .  A
C1904      H1919   1.085       .  S
C1905      C1906   1.413       .  A
C1905      C1909   1.445       .  S
C1906      C1907   1.402       .  A
C1907      C1908   1.403       .  A
C1907      H1920   1.085       .  S
C1908      C1910   1.444       .  S
C1909      N1913   1.157       .  T
C1910      N1914   1.157       .  T
C1911      N1916   1.157       .  T
C1912      N1915   1.157       .  T
C1921      C1922   1.412       .  A
C1921      C1926   1.398       .  A
C1921      C1935   1.445       .  S
C1922      C1927   1.488   1_545  S
C1922      C1923   1.404       .  A
C1923      C1924   1.403       .  A
C1923      H1942   1.085       .  S
C1924      C1925   1.415       .  A
C1924      C1936   1.444       .  S
C1925      C1926   1.405       .  A
C1926      H1941   1.085       .  S
C1927      C1928   1.406       .  A
C1927      C1932   1.412       .  A
C1928      C1929   1.405       .  A
C1928      H1943   1.084       .  S
C1929      C1930   1.412       .  A
C1929      C1933   1.443       .  S
C1930      C1931   1.403       .  A
C1931      C1932   1.395       .  A
C1931      H1944   1.086       .  S
C1932      C1934   1.445   1_565  S
C1933      N1937   1.157       .  T
C1934      N1938   1.157       .  T
C1935      N1940   1.157   1_545  T
C1936      N1939   1.157       .  T
C1945      C1946   1.410       .  A
C1945      C1950   1.401       .  A
C1945      C1959   1.443       .  S
C1946      C1951   1.489       .  S
C1946      C1947   1.402       .  A
C1947      C1948   1.403       .  A
C1947      H1966   1.085       .  S
C1948      C1949   1.420       .  A
C1948      C1960   1.444       .  S
C1949      C1950   1.407       .  A
C1950      H1965   1.085       .  S
C1951      C1952   1.403       .  A
C1951      C1956   1.410       .  A
C1952      C1953   1.406       .  A
C1952      H1967   1.085       .  S
C1953      C1954   1.419       .  A
C1953      C1957   1.443       .  S
C1954      C1955   1.409       .  A
C1955      C1956   1.398       .  A
C1955      H1968   1.084       .  S
C1956      C1958   1.445       .  S
C1957      N1961   1.157       .  T
C1958      N1962   1.157       .  T
C1959      N1964   1.157       .  T
C1960      N1963   1.157       .  T
C1969      C1970   1.412       .  A
C1969      C1974   1.399       .  A
C1969      C1983   1.445       .  S
C1970      C1975   1.486       .  S
C1970      C1971   1.405       .  A
C1971      C1972   1.402       .  A
C1971      H1990   1.085       .  S
C1972      C1973   1.409       .  A
C1972      C1984   1.442       .  S
C1973      C1974   1.401       .  A
C1974      H1989   1.085       .  S
C1975      C1976   1.407       .  A
C1975      C1980   1.412       .  A
C1976      C1977   1.406       .  A
C1976      H1991   1.084       .  S
C1977      C1978   1.411       .  A
C1977      C1981   1.444       .  S
C1978      C1979   1.401       .  A
C1979      C1980   1.394       .  A
C1979      H1992   1.086       .  S
C1980      C1982   1.446       .  S
C1981      N1985   1.157       .  T
C1982      N1986   1.157       .  T
C1983      N1988   1.157       .  T
C1984      N1987   1.156       .  T
C1993      C1994   1.411       .  A
C1993      C1998   1.403       .  A
C1993      C2007   1.443       .  S
C1994      C1999   1.486       .  S
C1994      C1995   1.401       .  A
C1995      C1996   1.402       .  A
C1995      H2014   1.085       .  S
C1996      C1997   1.415       .  A
C1996      C2008   1.445       .  S
C1997      C1998   1.404       .  A
C1998      H2013   1.085       .  S
C1999      C2000   1.401       .  A
C1999      C2004   1.407       .  A
C2000      C2001   1.404       .  A
C2000      H2015   1.085       .  S
C2001      C2002   1.422       .  A
C2001      C2005   1.444       .  S
C2002      C2003   1.410       .  A
C2003      C2004   1.401       .  A
C2003      H2016   1.085       .  S
C2004      C2006   1.444       .  S
C2005      N2009   1.158       .  T
C2006      N2010   1.157       .  T
C2007      N2012   1.157       .  T
C2008      N2011   1.157       .  T
C2017      C2018   1.410       .  A
C2017      C2022   1.397       .  A
C2017      C2031   1.445       .  S
C2018      C2023   1.491   1_455  S
C2018      C2019   1.406       .  A
C2019      C2020   1.409       .  A
C2019      H2038   1.084       .  S
C2020      C2021   1.416       .  A
C2020      C2032   1.443       .  S
C2021      C2022   1.407       .  A
C2022      H2037   1.085       .  S
C2023      C2024   1.405       .  A
C2023      C2028   1.410       .  A
C2024      C2025   1.406       .  A
C2024      H2039   1.085       .  S
C2025      C2026   1.414       .  A
C2025      C2029   1.442       .  S
C2026      C2027   1.406       .  A
C2027      C2028   1.402       .  A
C2027      H2040   1.085       .  S
C2028      C2030   1.444       .  S
C2029      N2033   1.157       .  T
C2030      N2034   1.157       .  T
C2031      N2036   1.157   1_455  T
C2032      N2035   1.157       .  T
C2041      C2042   1.411       .  A
C2041      C2046   1.399       .  A
C2041      C2055   1.444       .  S
C2042      C2047   1.482       .  S
C2042      C2043   1.405       .  A
C2043      C2044   1.402       .  A
C2043      H2062   1.085       .  S
C2044      C2045   1.409       .  A
C2044      C2056   1.444       .  S
C2045      C2046   1.402       .  A
C2046      H2061   1.085       .  S
C2047      C2048   1.397       .  A
C2047      C2052   1.409       .  A
C2048      C2049   1.391       .  A
C2048      H2063   1.086       .  S
C2049      C2050   1.420       .  A
C2049      C2053   1.446       .  S
C2050      C2051   1.409       .  A
C2051      C2052   1.408       .  A
C2051      H2064   1.084       .  S
C2052      C2054   1.442       .  S
C2053      N2057   1.158       .  T
C2054      N2058   1.157       .  T
C2055      N2060   1.157       .  T
C2056      N2059   1.157       .  T
C2065      C2066   1.411       .  A
C2065      C2070   1.405       .  A
C2065      C2079   1.443       .  S
C2066      C2071   1.493       .  S
C2066      C2067   1.401       .  A
C2067      C2068   1.398       .  A
C2067      H2086   1.085       .  S
C2068      C2069   1.423       .  A
C2068      C2080   1.446       .  S
C2069      C2070   1.409       .  A
C2070      H2085   1.084       .  S
C2071      C2072   1.407       .  A
C2071      C2076   1.413       .  A
C2072      C2073   1.405       .  A
C2072      H2087   1.084       .  S
C2073      C2074   1.411       .  A
C2073      C2077   1.443       .  S
C2074      C2075   1.404       .  A
C2075      C2076   1.400       .  A
C2075      H2088   1.084       .  S
C2076      C2078   1.444       .  S
C2077      N2081   1.157       .  T
C2078      N2082   1.157       .  T
C2079      N2084   1.157       .  T
C2080      N2083   1.158       .  T
C2089      C2090   1.410       .  A
C2089      C2094   1.396       .  A
C2089      C2103   1.445       .  S
C2090      C2095   1.479       .  S
C2090      C2091   1.404       .  A
C2091      C2092   1.403       .  A
C2091      H2110   1.084       .  S
C2092      C2093   1.408       .  A
C2092      C2104   1.444       .  S
C2093      C2094   1.401       .  A
C2094      H2109   1.084       .  S
C2095      C2096   1.401       .  A
C2095      C2100   1.408       .  A
C2096      C2097   1.402       .  A
C2096      H2111   1.085       .  S
C2097      C2098   1.418       .  A
C2097      C2101   1.444       .  S
C2098      C2099   1.407       .  A
C2099      C2100   1.395       .  A
C2099      H2112   1.084       .  S
C2100      C2102   1.443       .  S
C2101      N2105   1.157       .  T
C2102      N2106   1.157       .  T
C2103      N2108   1.157       .  T
C2104      N2107   1.157       .  T
C2113      C2114   1.410       .  A
C2113      C2118   1.398       .  A
C2113      C2127   1.444       .  S
C2114      C2119   1.486       .  S
C2114      C2115   1.403       .  A
C2115      C2116   1.403       .  A
C2115      H2134   1.085       .  S
C2116      C2117   1.416       .  A
C2116      C2128   1.444       .  S
C2117      C2118   1.405       .  A
C2118      H2133   1.085       .  S
C2119      C2120   1.400       .  A
C2119      C2124   1.409       .  A
C2120      C2121   1.402       .  A
C2120      H2135   1.085       .  S
C2121      C2122   1.421       .  A
C2121      C2125   1.444       .  S
C2122      C2123   1.409       .  A
C2123      C2124   1.400       .  A
C2123      H2136   1.084       .  S
C2124      C2126   1.445       .  S
C2125      N2129   1.157       .  T
C2126      N2130   1.157       .  T
C2127      N2132   1.157       .  T
C2128      N2131   1.157       .  T
C2137      C2138   1.412       .  A
C2137      C2142   1.398       .  A
C2137      C2151   1.445       .  S
C2138      C2143   1.498       .  S
C2138      C2139   1.409       .  A
C2139      C2140   1.410       .  A
C2139      H2158   1.084       .  S
C2140      C2141   1.413       .  A
C2140      C2152   1.443       .  S
C2141      C2142   1.405       .  A
C2142      H2157   1.085       .  S
C2143      C2144   1.408       .  A
C2143      C2148   1.413       .  A
C2144      C2145   1.407       .  A
C2144      H2159   1.085       .  S
C2145      C2146   1.413       .  A
C2145      C2149   1.444       .  S
C2146      C2147   1.405       .  A
C2147      C2148   1.402       .  A
C2147      H2160   1.085       .  S
C2148      C2150   1.444       .  S
C2149      N2153   1.157       .  T
C2150      N2154   1.157       .  T
C2151      N2156   1.157       .  T
C2152      N2155   1.157       .  T
C2161      C2162   1.412       .  A
C2161      C2166   1.403       .  A
C2161      C2175   1.442       .  S
C2162      C2167   1.493       .  S
C2162      C2163   1.401       .  A
C2163      C2164   1.403       .  A
C2163      H2182   1.085       .  S
C2164      C2165   1.422       .  A
C2164      C2176   1.444       .  S
C2165      C2166   1.408       .  A
C2166      H2181   1.084       .  S
C2167      C2168   1.404       .  A
C2167      C2172   1.412       .  A
C2168      C2169   1.406       .  A
C2168      H2183   1.085       .  S
C2169      C2170   1.419       .  A
C2169      C2173   1.443       .  S
C2170      C2171   1.407       .  A
C2171      C2172   1.399       .  A
C2171      H2184   1.085       .  S
C2172      C2174   1.444       .  S
C2173      N2177   1.157       .  T
C2174      N2178   1.157       .  T
C2175      N2180   1.156       .  T
C2176      N2179   1.157       .  T
C2185      C2186   1.415       .  A
C2185      C2190   1.406       .  A
C2185      C2199   1.443       .  S
C2186      C2191   1.487       .  S
C2186      C2187   1.402       .  A
C2187      C2188   1.394       .  A
C2187      H2206   1.085       .  S
C2188      C2189   1.410       .  A
C2188      C2200   1.444       .  S
C2189      C2190   1.403       .  A
C2190      H2205   1.084       .  S
C2191      C2192   1.401       .  A
C2191      C2196   1.414       .  A
C2192      C2193   1.397       .  A
C2192      H2207   1.085       .  S
C2193      C2194   1.410       .  A
C2193      C2197   1.442       .  S
C2194      C2195   1.402       .  A
C2195      C2196   1.404       .  A
C2195      H2208   1.085       .  S
C2196      C2198   1.443       .  S
C2197      N2201   1.156       .  T
C2198      N2202   1.157       .  T
C2199      N2204   1.157       .  T
C2200      N2203   1.157       .  T
C2209      C2210   1.409       .  A
C2209      C2214   1.405       .  A
C2209      C2223   1.442       .  S
C2210      C2215   1.481       .  S
C2210      C2211   1.400       .  A
C2211      C2212   1.397       .  A
C2211      H2230   1.085       .  S
C2212      C2213   1.414       .  A
C2212      C2224   1.445       .  S
C2213      C2214   1.405       .  A
C2214      H2229   1.085       .  S
C2215      C2216   1.401       .  A
C2215      C2220   1.408       .  A
C2216      C2217   1.400       .  A
C2216      H2231   1.085       .  S
C2217      C2218   1.415       .  A
C2217      C2221   1.444       .  S
C2218      C2219   1.408       .  A
C2219      C2220   1.402       .  A
C2219      H2232   1.084       .  S
C2220      C2222   1.444       .  S
C2221      N2225   1.157       .  T
C2222      N2226   1.157       .  T
C2223      N2228   1.157       .  T
C2224      N2227   1.157       .  T
C2233      C2234   1.411       .  A
C2233      C2238   1.408       .  A
C2233      C2247   1.442       .  S
C2234      C2239   1.484       .  S
C2234      C2235   1.398       .  A
C2235      C2236   1.396       .  A
C2235      H2254   1.085       .  S
C2236      C2237   1.417       .  A
C2236      C2248   1.446       .  S
C2237      C2238   1.406       .  A
C2238      H2253   1.084       .  S
C2239      C2240   1.401       .  A
C2239      C2244   1.407       .  A
C2240      C2241   1.402       .  A
C2240      H2255   1.085       .  S
C2241      C2242   1.417       .  A
C2241      C2245   1.441       .  S
C2242      C2243   1.410       .  A
C2243      C2244   1.403       .  A
C2243      H2256   1.084       .  S
C2244      C2246   1.443       .  S
C2245      N2249   1.156       .  T
C2246      N2250   1.157       .  T
C2247      N2252   1.157       .  T
C2248      N2251   1.157       .  T
