geometry optimzed in LAMMPS
_audit_creation_date              2020-11-30 
_audit_creation_method            'lammps2cif' 
_symmetry_space_group_name_H-M    'P1' 
_symmetry_Int_Tables_number       1 
_symmetry_cell_setting            triclinic 
loop_ 
_symmetry_equiv_pos_as_xyz 
  x,y,z 
_cell_length_a                    45.76825663583198 
_cell_length_b                    45.885482918586085 
_cell_length_c                    39.556851244758136 
_cell_angle_alpha                 90.16266456523576 
_cell_angle_beta                  89.36872690631095 
_cell_angle_gamma                 119.86627347616513 
loop_ 
_atom_site_label 
_atom_site_type_symbol 
_atom_site_fract_x 
_atom_site_fract_y 
_atom_site_fract_z 
_atom_site_charge 
O1          O  0.44408452  0.15735459  0.77067534    -0.88960
C2          C  0.48104637  0.11911784  0.70240025     0.87070
Mg3        Mg  0.40487658  0.16400008  0.75392999     1.58150
O4          O  0.01594280  0.20783497  0.72079088    -0.88690
O5          O  0.99492936  0.18394914  0.79006226    -0.76020
C6          C  0.44187883  0.22897685  0.59665581     0.92120
O7          O  0.40073196  0.10208524  0.71307149    -0.75840
O8          O  0.41589977  0.21888402  0.61647054    -0.83340
Mg9        Mg  0.43580421  0.10891291  0.75771781     1.57960
C10         C  0.06780563  0.25108850  0.63822312     0.92040
O11         O  0.47522782  0.11597396  0.80012952    -0.81610
H12         H  0.04320769  0.24568888  0.75281400    -0.06950
C13         C  0.47189992  0.17402043  0.63673196     0.86980
O14         O  0.44248437  0.22086113  0.74302738    -0.76120
O15         O  0.47558053  0.13455825  0.72452168    -0.88880
O16         O  0.06695392  0.24695062  0.66965628    -0.81690
C17         C  0.08985279  0.20332541  0.74532862     0.92160
C18         C  0.00760102  0.12841030  0.79953965     0.92010
Mg19       Mg  0.50116906  0.24614189  0.65807360     1.57950
O20         O  0.47068215  0.23661973  0.60874703    -0.81610
O21         O  0.03039778  0.25935680  0.70883837    -0.75850
O22         O  0.07076412  0.20723899  0.76598108    -0.81690
O23         O  0.38788514  0.08488675  0.79181416    -0.83400
O24         O  0.38208801  0.21190892  0.70855423    -0.81720
C25         C  0.03023782  0.23776365  0.72900513     0.86440
O26         O  0.45672016  0.22832963  0.68883049    -0.88870
O27         O  0.49353847  0.19524968  0.65567806    -0.88970
O28         O  0.44164297  0.16884578  0.63641057    -0.76030
Mg29       Mg  0.02035477  0.17128178  0.74605760     1.57970
O30         O  0.08074816  0.19535765  0.71421362    -0.83400
H31         H  0.45485040  0.18259672  0.81446561    -0.07130
O32         O  0.41129337  0.15358366  0.70505188    -0.88670
H33         H  0.37922439  0.11542151  0.67591019    -0.06950
H34         H  0.47370372  0.26646696  0.72168760    -0.07130
C35         C  0.39649733  0.12358932  0.69683672     0.86420
C36         C  0.46392537  0.17497365  0.79273492     0.87010
C37         C  0.45821491  0.23969911  0.71770751     0.87050
H38         H  0.47892965  0.16011925  0.61956561    -0.07110
O39         O  0.00502692  0.13545978  0.68193358    -0.76130
Mg40       Mg  0.41172545  0.18928558  0.66827509     1.58000
H41         H  0.46636250  0.09200147  0.70118976    -0.07120
C42         C  0.36203884  0.08766876  0.78469173     0.92040
O43         O  0.36314139  0.16437303  0.73310163    -0.83360
C44         C  0.36539594  0.19239685  0.73358118     0.92100
O45         O  0.02287128  0.13043470  0.77234820    -0.83350
Mg46       Mg  0.03615498  0.19332463  0.67991173     1.58180
O47         O  0.36406363  0.11014926  0.76490059    -0.81680
O48         O  0.04911276  0.26121443  0.62528567    -0.83380
O49         O  0.43784681  0.28474267  0.36842493    -0.88960
C50         C  0.49115728  0.37226908  0.42309617     0.87070
Mg51       Mg  0.40050546  0.24810098  0.39948334     1.58150
O52         O  0.03125373  0.32318542  0.42608100    -0.88690
O53         O  0.98443234  0.28266542  0.36867347    -0.76020
C54         C  0.44203884  0.23449028  0.55883399     0.92120
O55         O  0.40901395  0.31491712  0.42948898    -0.75840
O56         O  0.41659391  0.21779038  0.53911630    -0.83340
Mg57       Mg  0.44054895  0.33287135  0.38063833     1.57960
C58         C  0.07184016  0.33573680  0.51472715     0.92040
O59         O  0.47598239  0.36940115  0.33797590    -0.81610
H60         H  0.05851680  0.30487503  0.40441994    -0.06950
C61         C  0.47546818  0.31675611  0.50932618     0.86980
O62         O  0.43872500  0.22861615  0.41425560    -0.76120
O63         O  0.48438904  0.34650833  0.40731325    -0.88880
O64         O  0.07186839  0.33770019  0.48321693    -0.81690
C65         C  0.08445931  0.40919664  0.40359773     0.92160
C66         C  0.00422400  0.37146652  0.33145796     0.92010
Mg67       Mg  0.50308978  0.27195080  0.49699630     1.57950
O68         O  0.47098684  0.25560624  0.54651818    -0.81610
O69         O  0.03572546  0.28242554  0.44881775    -0.75850
O70         O  0.06201009  0.38907438  0.38378428    -0.81690
O71         O  0.39128664  0.31237069  0.35355816    -0.83400
O72         O  0.38233993  0.18636253  0.44861969    -0.81720
C73         C  0.04255968  0.30371410  0.42532434     0.86440
O74         O  0.45842704  0.24251006  0.46628613    -0.88870
O75         O  0.49569135  0.31445562  0.48989504    -0.88970
O76         O  0.44508420  0.29258764  0.51273708    -0.76030
Mg77       Mg  0.02039707  0.33562280  0.38110026     1.57970
O78         O  0.08441330  0.40206824  0.43501615    -0.83400
H79         H  0.44263651  0.24936112  0.34393950    -0.07130
O80         O  0.41690822  0.27405025  0.44358104    -0.88670
H81         H  0.38970587  0.28774301  0.47259094    -0.06950
H82         H  0.47289225  0.21766258  0.43477283    -0.07130
C83         C  0.40478476  0.29207190  0.44995164     0.86420
C84         C  0.45501603  0.27256239  0.35806717     0.87010
C85         C  0.45767601  0.22943267  0.43847225     0.87050
H86         H  0.48391666  0.33920073  0.52436205    -0.07110
O87         O  0.00972233  0.38071100  0.44862364    -0.76130
Mg88       Mg  0.41419557  0.24071311  0.48488459     1.58000
H89         H  0.47964718  0.38694740  0.41591353    -0.07120
C90         C  0.36375454  0.28609791  0.36242262     0.92040
O91         O  0.36097211  0.21573857  0.43365666    -0.83360
C92         C  0.36294887  0.19016317  0.42806690     0.92100
O93         O  0.00625017  0.34557855  0.33461319    -0.83350
Mg94       Mg  0.04016281  0.35768387  0.46559947     1.58180
O95         O  0.36256882  0.26493823  0.38394868    -0.81680
O96         O  0.05023820  0.30866316  0.52944494    -0.83380
O97         O  0.37617296  0.08809959  0.05459270    -0.88960
C98         C  0.40963943  0.04062762  0.11815442     0.87070
Mg99       Mg  0.37205987  0.12892870  0.07144613     1.58150
O100        O  0.32235737  0.00351496  0.09849430    -0.88690
O101        O  0.34814957  0.03922564  0.03129109    -0.76020
C102        C  0.30506488  0.09150493  0.22560757     0.92120
O103        O  0.42959666  0.12357743  0.11316747    -0.75840
O104        O  0.31488547  0.11751939  0.20633915    -0.83340
Mg105      Mg  0.42345854  0.09257714  0.06475181     1.57960
C106        C  0.27464799  0.46415711  0.18439276     0.92040
O107        O  0.41730155  0.06050867  0.01657588    -0.81610
H108        H  0.28307399  0.48385303  0.06698238    -0.06950
C109        C  0.35645817  0.05899968  0.18452283     0.86980
O110        O  0.31408908  0.09285817  0.07936052    -0.76120
O111        O  0.39632230  0.04729029  0.09478401    -0.88880
O112        O  0.27911460  0.46555321  0.15325063    -0.81690
C113        C  0.34459522  0.44100980  0.10035311     0.92160
C114        C  0.40543841  0.02866165  0.01487515     0.92010
Mg115      Mg  0.28597158  0.03234647  0.16272087     1.57950
O116        O  0.29624719  0.06273077  0.21263711    -0.81610
O117        O  0.27526632  0.00347297  0.11031920    -0.75850
O118        O  0.36942296  0.46826679  0.09077490    -0.81690
O119        O  0.44780982  0.14187569  0.03296361    -0.83400
O120        O  0.32313377  0.15100729  0.11410485    -0.81720
C121        C  0.29342362  0.99660186  0.09057680     0.86440
O122        O  0.30518770  0.07672536  0.13280641    -0.88870
O123        O  0.33614144  0.03908348  0.16373448    -0.88970
O124        O  0.36252041  0.08941611  0.18662101    -0.76030
Mg125      Mg  0.36039692  0.00615234  0.06560451     1.57970
O126        O  0.32585083  0.44150145  0.12394347    -0.83400
H127        H  0.34899913  0.08096004  0.01294419    -0.07130
O128        O  0.38002674  0.11969332  0.11942670    -0.88670
H129        H  0.41778268  0.14552380  0.15165433    -0.06950
H130        H  0.26767790  0.06153541  0.09957253    -0.07130
C131        C  0.40926744  0.13021970  0.12916266     0.86420
C132        C  0.35755972  0.07020719  0.03205212     0.87010
C133        C  0.29446900  0.07635595  0.10400197     0.87050
H134        H  0.36875201  0.05032045  0.20166945    -0.07110
O135        O  0.39145597  0.01927845  0.14051843    -0.76130
Mg136      Mg  0.34428606  0.12075802  0.15483266     1.58000
H137        H  0.43677987  0.05238757  0.11915295    -0.07120
C138        C  0.44605485  0.16800006  0.04103641     0.92040
O139        O  0.37242069  0.17179523  0.09238121    -0.83360
C140        C  0.34400361  0.16880073  0.09034375     0.92100
O141        O  0.40590371  0.01284662  0.03989852    -0.83350
Mg142      Mg  0.33333640  0.49173021  0.14621664     1.58180
O143        O  0.42723586  0.16720751  0.06485144    -0.81680
O144        O  0.26751545  0.48492546  0.19771107    -0.83380
O145        O  0.22779061  0.08898434  0.43457826    -0.88960
C146        C  0.14645623  0.04165968  0.37095181     0.87070
Mg147      Mg  0.27268168  0.12975091  0.41783076     1.58150
O148        O  0.19554491  0.00313920  0.39041785    -0.88690
O149        O  0.20691237  0.03933766  0.45638851    -0.76020
C150        C  0.30122394  0.09154149  0.26369793     0.92120
O151        O  0.20973994  0.12489220  0.37634273    -0.75840
O152        O  0.31761294  0.11748693  0.28287256    -0.83340
Mg153      Mg  0.18488460  0.09318019  0.42454350     1.57960
C154        C  0.20376071  0.46449671  0.30474094     0.92040
O155        O  0.15937709  0.06040842  0.47268201    -0.81610
H156        H  0.21485714  0.48309334  0.42198772    -0.06950
C157        C  0.21759720  0.05991936  0.30496615     0.86980
O158        O  0.29406987  0.09318648  0.40974351    -0.76120
O159        O  0.16669705  0.04812213  0.39397302    -0.88880
O160        O  0.20060042  0.46568315  0.33586549    -0.81690
C161        C  0.11079245  0.44124371  0.38886351     0.92160
C162        C  0.13925098  0.02856746  0.47337296     0.92010
Mg163      Mg  0.26087224  0.03239391  0.32656775     1.57950
O164        O  0.28107944  0.06283830  0.27676647    -0.81610
O165        O  0.24260331  0.00311797  0.37880838    -0.75850
O166        O  0.11338198  0.46845687  0.39882935    -0.81690
O167        O  0.20975771  0.14212032  0.45650827    -0.83400
O168        O  0.34321262  0.15096107  0.37561739    -0.81720
C169        C  0.21745015  0.99607786  0.39842124     0.86440
O170        O  0.28614727  0.07670205  0.35654801    -0.88870
O171        O  0.21771215  0.03958130  0.32555680    -0.88970
O172        O  0.24212591  0.09027497  0.30301350    -0.76030
Mg173      Mg  0.16078663  0.00652237  0.42310972     1.57970
O174        O  0.12989907  0.44193118  0.36502378    -0.83400
H175        H  0.24804832  0.08027862  0.47515090    -0.07130
O176        O  0.25529185  0.12080409  0.36999642    -0.88670
H177        H  0.24374814  0.14726812  0.33800889    -0.06950
H178        H  0.30837054  0.06121658  0.38970289    -0.07130
C179        C  0.23676507  0.13163837  0.36037277     0.86420
C180        C  0.22855798  0.07027945  0.45626883     0.87010
C181        C  0.29664698  0.07629676  0.38525397     0.87050
H182        H  0.19670292  0.05166511  0.28785197    -0.07110
O183        O  0.14268287  0.02008700  0.34872185    -0.76130
Mg184      Mg  0.29181072  0.12119056  0.33459185     1.58000
H185        H  0.13133812  0.05373978  0.37019183    -0.07120
C186        C  0.23769069  0.16852177  0.44903647     0.92040
O187        O  0.31518420  0.17255121  0.39651047    -0.83360
C188        C  0.34027910  0.16906263  0.39907826     0.92100
O189        O  0.12231241  0.01411551  0.44834189    -0.83350
Mg190      Mg  0.17289772  0.49216932  0.34283319     1.58180
O191        O  0.25619060  0.16839764  0.42531138    -0.81680
O192        O  0.23173408  0.48525080  0.29146114    -0.83380
O193        O  0.29341726  0.37459164  0.21695454    -0.88960
C194        C  0.37835048  0.41246772  0.27788135     0.87070
Mg195      Mg  0.25148704  0.37181519  0.23928704     1.58150
O196        O  0.33465656  0.32576659  0.26056510    -0.88690
O197        O  0.31453689  0.34486564  0.19801544    -0.76020
C198        C  0.23219690  0.30572219  0.39218776     0.92120
O199        O  0.31745805  0.43213586  0.27305476    -0.75840
O200        O  0.21589393  0.31564259  0.37328272    -0.83340
Mg201      Mg  0.33749638  0.42047787  0.22370534     1.57960
C202        C  0.33324892  0.27877693  0.34452127     0.92040
O203        O  0.35683775  0.40523024  0.17367697    -0.81610
H204        H  0.31573930  0.28592203  0.22960269    -0.06950
C205        C  0.31600794  0.35973968  0.34844285     0.86980
O206        O  0.23243585  0.31415339  0.24801925    -0.76120
O207        O  0.35706119  0.39674239  0.25615901    -0.88880
O208        O  0.33626904  0.28469871  0.31356032    -0.81690
C209        C  0.42165153  0.35677426  0.25410261     0.92160
C210        C  0.38168694  0.39990564  0.17491569     0.92010
Mg211      Mg  0.27327892  0.28878090  0.32741910     1.57950
O212        O  0.25315464  0.29796208  0.37894837    -0.81610
O213        O  0.28988424  0.27789382  0.27419717    -0.75850
O214        O  0.41558115  0.38025809  0.24940577    -0.81690
O215        O  0.31149824  0.44310955  0.19395342    -0.83400
O216        O  0.18722548  0.32265516  0.28193242    -0.81720
C217        C  0.31359437  0.29635256  0.25341803     0.86440
O218        O  0.24600438  0.30711474  0.29933170    -0.88870
O219        O  0.31580218  0.33908524  0.32788515    -0.88970
O220        O  0.29114051  0.36520511  0.35114090    -0.76030
Mg221      Mg  0.36552583  0.36436682  0.22652378     1.57970
O222        O  0.40438331  0.33488534  0.27654080    -0.83400
H223        H  0.26996187  0.33910719  0.18196262    -0.07130
O224        O  0.27504502  0.38195825  0.28427772    -0.88670
H225        H  0.28720394  0.42130567  0.31476001    -0.06950
H226        H  0.22210506  0.26876541  0.26715496    -0.07130
C227        C  0.29290663  0.41196274  0.29197922     0.86420
C228        C  0.29146726  0.35234509  0.19824659     0.87010
C229        C  0.23324095  0.29547599  0.27152094     0.87050
H230        H  0.33734479  0.37291486  0.36493350    -0.07110
O231        O  0.38607314  0.39678221  0.29917453    -0.76130
Mg232      Mg  0.24021048  0.34567135  0.32148387     1.58000
H233        H  0.39112493  0.43962601  0.27816596    -0.07120
C234        C  0.28528807  0.44414291  0.20372930     0.92040
O235        O  0.21271702  0.37407514  0.26865202    -0.83360
C236        C  0.18950154  0.34555667  0.26157114     0.92100
O237        O  0.40111544  0.41191384  0.19887823    -0.83350
Mg238      Mg  0.36085684  0.33895695  0.30570654     1.58180
O239        O  0.26715684  0.42662801  0.22830270    -0.81680
O240        O  0.30573532  0.27203838  0.35907712    -0.83380
O241        O  0.15528658  0.22778245  0.60286845    -0.88960
C242        C  0.11979847  0.14554612  0.54108355     0.87070
Mg243      Mg  0.16033767  0.27289613  0.58590852     1.58150
O244        O  0.20755082  0.19576780  0.55838650    -0.88690
O245        O  0.18256960  0.20679644  0.62741821    -0.76020
C246        C  0.22694175  0.30040784  0.43016325     0.92120
O247        O  0.10164905  0.21047177  0.54446281    -0.75840
O248        O  0.21735255  0.31670091  0.44987613    -0.83340
Mg249      Mg  0.10756007  0.18557463  0.59279554     1.57960
C250        C  0.25037316  0.19910814  0.46942035     0.92040
O251        O  0.11266417  0.15970637  0.64101654    -0.81610
H252        H  0.24819660  0.21393138  0.58799579    -0.06950
C253        C  0.17258755  0.21592024  0.47204312     0.86980
O254        O  0.21795976  0.29300540  0.57662705    -0.76120
O255        O  0.13401872  0.16654696  0.56340924    -0.88880
O256        O  0.24797214  0.19645264  0.50082842    -0.81690
C257        C  0.18636565  0.11312701  0.56176956     0.92160
C258        C  0.12403157  0.13934561  0.64364006     0.92010
Mg259      Mg  0.24366954  0.25828219  0.49245282     1.57950
O260        O  0.23434973  0.27920855  0.44258949    -0.81610
O261        O  0.25543231  0.24031731  0.54420773    -0.75850
O262        O  0.16065270  0.11492456  0.56918852    -0.81690
O263        O  0.08394483  0.21073057  0.62431565    -0.83400
O264        O  0.20934697  0.34314135  0.54229674    -0.81720
C265        C  0.23725149  0.21649874  0.56490881     0.86440
O266        O  0.22602610  0.28494772  0.52308414    -0.88870
O267        O  0.19281501  0.21560549  0.49249920    -0.88970
O268        O  0.16768215  0.24108351  0.47003481    -0.76030
Mg269      Mg  0.17005885  0.16166259  0.59291553     1.57970
O270        O  0.20378920  0.12973451  0.53630279    -0.83400
H271        H  0.18147703  0.24786744  0.64505102    -0.07130
O272        O  0.15131111  0.25552411  0.53773858    -0.88670
H273        H  0.11325442  0.24394961  0.50600992    -0.06950
H274        H  0.26393777  0.30653190  0.55595438    -0.07130
C275        C  0.12191813  0.23716083  0.52835962     0.86420
C276        C  0.17329707  0.22847514  0.62602066     0.87010
C277        C  0.23715181  0.29527447  0.55178958     0.87050
H278        H  0.15950116  0.19497087  0.45501258    -0.07110
O279        O  0.13714545  0.14105203  0.51867301    -0.76130
Mg280      Mg  0.18736232  0.29119971  0.50166086     1.58000
H281        H  0.09262123  0.13045621  0.54106565    -0.07120
C282        C  0.08618467  0.23899139  0.61764408     0.92040
O283        O  0.16050293  0.31545783  0.56513497    -0.83360
C284        C  0.18891140  0.34077877  0.56640870     0.92100
O285        O  0.12475352  0.12330581  0.61884569    -0.83350
Mg286      Mg  0.19493705  0.17070425  0.51134673     1.58180
O287        O  0.10566223  0.25802569  0.59476867    -0.81680
O288        O  0.25940423  0.22761040  0.45671326    -0.83380
O289        O  0.09050719  0.24110548  0.87528281    -0.88960
C290        C  0.03526189  0.15250516  0.92671087     0.87070
Mg291      Mg  0.12823025  0.28079808  0.90269096     1.58150
O292        O  0.50313309  0.21001218  0.92835086    -0.88690
O293        O  0.04359933  0.23540025  0.85740605    -0.76020
C294        C  0.08893989  0.30007510  0.06075636     0.92120
O295        O  0.11532756  0.21186398  0.93428095    -0.75840
O296        O  0.11441269  0.31673811  0.04057463    -0.83340
Mg297      Mg  0.08912258  0.19432919  0.88243660     1.57960
C298        C  0.46392963  0.19914648  0.02146030     0.92040
O299        O  0.05848048  0.16564785  0.83198112    -0.81610
H300        H  0.47565628  0.22748820  0.90632079    -0.06950
C301        C  0.05606304  0.21704272  0.01320308     0.86980
O302        O  0.08971919  0.30007590  0.91443007    -0.76120
O303        O  0.04194394  0.17587091  0.90714370    -0.88880
O304        O  0.46214446  0.19765195  0.98990439    -0.81690
C305        C  0.43836723  0.12322031  0.91513517     0.92160
C306        C  0.02645132  0.15173922  0.82691302     0.92010
Mg307      Mg  0.02872316  0.26171902  0.99968726     1.57950
O308        O  0.06018794  0.27897912  0.04880532    -0.81610
O309        O  0.99628697  0.24954915  0.95123294    -0.75850
O310        O  0.46033892  0.13939364  0.89314210    -0.81690
O311        O  0.14283491  0.22020658  0.85879818    -0.83400
O312        O  0.14630609  0.34570319  0.94916588    -0.81720
C313        C  0.49115549  0.22891635  0.92738909     0.86440
O314        O  0.07240844  0.29033423  0.96799825    -0.88870
O315        O  0.03689067  0.21916978  0.99274849    -0.88970
O316        O  0.08612374  0.24142423  0.01707727    -0.76030
Mg317      Mg  0.00612323  0.18730016  0.88383067     1.57970
O318        O  0.44285896  0.13247741  0.94606291    -0.83400
H319        H  0.08912228  0.27028783  0.83871940    -0.07130
O320        O  0.11263741  0.25675207  0.94746774    -0.88670
H321        H  0.13423416  0.23812896  0.97768826    -0.06950
H322        H  0.05596662  0.31195411  0.93507117    -0.07130
C323        C  0.12118095  0.23582108  0.95436636     0.86420
C324        C  0.07520132  0.24927039  0.85569525     0.87010
C325        C  0.07181987  0.30103256  0.93923928     0.87050
H326        H  0.04693165  0.19476053  0.02871108    -0.07110
O327        O  0.01887000  0.14901088  0.95367531    -0.76130
Mg328      Mg  0.11630286  0.29230411  0.98704642     1.58000
H329        H  0.04496005  0.13573199  0.92149965    -0.07120
C330        C  0.16902179  0.24615626  0.87053354     0.92040
O331        O  0.16858142  0.31745216  0.93255393    -0.83360
C332        C  0.16569180  0.34256343  0.92761690     0.92100
O333        O  0.00813711  0.15940569  0.84388743    -0.83350
Mg334      Mg  0.49130933  0.17600322  0.97074171     1.58180
O335        O  0.16698909  0.26443351  0.89330766    -0.81680
O336        O  0.48346954  0.22724598  0.03496100    -0.83380
O337        O  0.09544399  0.37507082  0.27264740    -0.88960
C338        C  0.04866466  0.41287553  0.21105065     0.87070
Mg339      Mg  0.13473174  0.37212115  0.25086510     1.58150
O340        O  0.50587869  0.32623319  0.22909200    -0.88690
O341        O  0.04462971  0.34546919  0.29173516    -0.76020
C342        C  0.08909876  0.30536708  0.09869057     0.92120
O343        O  0.12906342  0.43222365  0.21603867    -0.75840
O344        O  0.11527179  0.31535103  0.11757770    -0.83340
Mg345      Mg  0.09732543  0.42098490  0.26540777     1.57960
C346        C  0.46060519  0.27904149  0.14543655     0.92040
O347        O  0.06258449  0.40600350  0.31549709    -0.81610
H348        H  0.48473709  0.28648627  0.26040826    -0.06950
C349        C  0.05901208  0.35978552  0.14118136     0.86980
O350        O  0.09625100  0.31442049  0.24270516    -0.76120
O351        O  0.05411503  0.39724572  0.23308927    -0.88880
O352        O  0.46349819  0.28496999  0.17634337    -0.81690
C353        C  0.44965703  0.35691760  0.23467975     0.92160
C354        C  0.03235481  0.40054875  0.31432484     0.92010
Mg355      Mg  0.03056194  0.28893143  0.16300462     1.57950
O356        O  0.06039066  0.29778925  0.11187819    -0.81610
O357        O  0.00277308  0.27826479  0.21609563    -0.75850
O358        O  0.47909779  0.38052830  0.23929680    -0.81690
O359        O  0.14593466  0.44368722  0.29511168    -0.83400
O360        O  0.15023728  0.32266294  0.20910613    -0.81720
C361        C  0.49744909  0.29682520  0.23657130     0.86440
O362        O  0.07599123  0.30714889  0.19126136    -0.88870
O363        O  0.03848705  0.33931441  0.16192446    -0.88970
O364        O  0.08929296  0.36508369  0.13862546    -0.76030
Mg365      Mg  0.01318636  0.36479836  0.26275427     1.57970
O366        O  0.44527922  0.33509308  0.21238680    -0.83400
H367        H  0.08342781  0.33983265  0.30813896    -0.07130
O368        O  0.12163299  0.38204256  0.20554350    -0.88670
H369        H  0.14871402  0.42126115  0.17465545    -0.06950
H370        H  0.06135641  0.26895247  0.22391785    -0.07130
C371        C  0.13363338  0.41199790  0.19747305     0.86420
C372        C  0.07516314  0.35295731  0.29158952     0.87010
C373        C  0.07693888  0.29563889  0.21928552     0.87050
H374        H  0.05096004  0.37291827  0.12439566    -0.07110
O375        O  0.02549817  0.39708882  0.18966917    -0.76130
Mg376      Mg  0.12049312  0.34558765  0.16893723     1.58000
H377        H  0.06295440  0.44003635  0.21053890    -0.07120
C378        C  0.17316399  0.44462439  0.28543234     0.92040
O379        O  0.17593616  0.37406628  0.22217361    -0.83360
C380        C  0.17071230  0.34555429  0.22941093     0.92100
O381        O  0.02471533  0.41219561  0.29012141    -0.83350
Mg382      Mg  0.49310028  0.33923834  0.18363423     1.58180
O383        O  0.17377595  0.42700394  0.26107244    -0.81680
O384        O  0.48151002  0.27242545  0.13096060    -0.83380
O385        O  0.28952638  0.44347785  0.94724765    -0.88960
C386        C  0.37676589  0.49785728  0.89260750     0.87070
Mg387      Mg  0.24963417  0.40410968  0.92199449     1.58150
O388        O  0.31888564  0.02916364  0.89326184    -0.88690
O389        O  0.29450998  0.99056385  0.96394861    -0.76020
C390        C  0.22788675  0.44043122  0.76414209     0.92120
O391        O  0.31810140  0.41668419  0.88746315    -0.75840
O392        O  0.21138569  0.41494310  0.78414199    -0.83340
Mg393      Mg  0.33686219  0.44597692  0.93752611     1.57960
C394        C  0.32986939  0.06774572  0.80263147     0.92040
O395        O  0.36674194  0.47829313  0.98480576    -0.81610
H396        H  0.30082232  0.05591717  0.91642531    -0.06950
C397        C  0.31150597  0.47462936  0.80977051     0.86980
O398        O  0.22866716  0.44097663  0.90954105    -0.76120
O399        O  0.35294116  0.49137140  0.91180243    -0.88880
O400        O  0.33012656  0.06919582  0.83407474    -0.81690
C401        C  0.40730544  0.09341494  0.90374156     0.92160
C402        C  0.38021534  0.01010000  0.98976854     0.92010
Mg403      Mg  0.26670025  0.50161012  0.82401568     1.57950
O404        O  0.24902204  0.46917797  0.77604670    -0.81610
O405        O  0.27808866  0.03445723  0.87205566    -0.75850
O406        O  0.39020715  0.07203076  0.92566728    -0.81690
O407        O  0.31490125  0.39525156  0.96394920    -0.83400
O408        O  0.18351770  0.38277207  0.87615203    -0.81720
C409        C  0.29938176  0.04041445  0.89516827     0.86440
O410        O  0.23815903  0.45789261  0.85603490    -0.88870
O411        O  0.30936553  0.49403915  0.83020093    -0.88970
O412        O  0.28730566  0.44439859  0.80645412    -0.76030
Mg413      Mg  0.34212761  0.02751800  0.93634314     1.57970
O414        O  0.39773345  0.08926955  0.87304077    -0.83400
H415        H  0.26047681  0.44560344  0.98408104    -0.07130
O416        O  0.27234402  0.41801616  0.87606927    -0.88670
H417        H  0.28988442  0.39501149  0.84581018    -0.06950
H418        H  0.21544453  0.47350440  0.88916369    -0.07130
C419        C  0.29313333  0.40933587  0.86858909     0.86420
C420        C  0.28124129  0.45916457  0.96656790     0.87010
C421        C  0.22717132  0.45834551  0.88485296     0.87050
H422        H  0.33367435  0.48367934  0.79379983    -0.07110
O423        O  0.38062896  0.01380381  0.86555086    -0.76130
Mg424      Mg  0.23653103  0.41380561  0.83716016     1.58000
H425        H  0.39350047  0.48826430  0.89818067    -0.07120
C426        C  0.28876636  0.36780246  0.95521381     0.92040
O427        O  0.21311853  0.36228323  0.89346662    -0.83360
C428        C  0.18728674  0.36421531  0.89798119     0.92100
O429        O  0.37111553  0.02791809  0.97471409    -0.83350
Mg430      Mg  0.35277337  0.04050017  0.85038278     1.58180
O431        O  0.26772056  0.36688980  0.93405345    -0.81680
O432        O  0.30256492  0.04698980  0.78834968    -0.83380
O433        O  0.16874745  0.44196952  0.53977895    -0.88960
C434        C  0.13318296  0.49431366  0.59293748     0.87070
Mg435      Mg  0.16917726  0.40413703  0.56767666     1.58150
O436        O  0.22247763  0.02858647  0.59641928    -0.88690
O437        O  0.21305420  0.98902497  0.52671319    -0.76020
C438        C  0.22273976  0.44093158  0.72647980     0.92120
O439        O  0.11114071  0.41437902  0.59887710    -0.75840
O440        O  0.21478425  0.41602428  0.70610397    -0.83340
Mg441      Mg  0.12346797  0.44409726  0.54890031     1.57960
C442        C  0.24880202  0.07153341  0.68622911     0.92040
O443        O  0.12632062  0.47692189  0.50201267    -0.81610
H444        H  0.26766156  0.05771487  0.57467006    -0.06950
C445        C  0.17373176  0.47514911  0.67894217     0.86980
O446        O  0.22646539  0.44223220  0.58170780    -0.76120
O447        O  0.15198653  0.48863913  0.57507803    -0.88880
O448        O  0.24817408  0.07188291  0.65465634    -0.81690
C449        C  0.19256764  0.08816361  0.57881121     0.92160
C450        C  0.14575238  0.00854857  0.49705084     0.92010
Mg451      Mg  0.24601142  0.50349793  0.66691136     1.57950
O452        O  0.23001840  0.46993389  0.71504555    -0.81610
O453        O  0.26878478  0.03692408  0.61963911    -0.75850
O454        O  0.19292220  0.06677372  0.55992422    -0.81690
O455        O  0.09560026  0.39385528  0.52269801    -0.83400
O456        O  0.21305675  0.38392641  0.61519452    -0.81720
C457        C  0.25346349  0.04168663  0.59566891     0.86440
O458        O  0.23234582  0.45971762  0.63488689    -0.88870
O459        O  0.19590343  0.49536771  0.65939063    -0.88970
O460        O  0.16812965  0.44499872  0.68200367    -0.76030
Mg461      Mg  0.19971080  0.02496563  0.55168867     1.57970
O462        O  0.19684779  0.08705574  0.61058044    -0.83400
H463        H  0.20227377  0.44467633  0.50542284    -0.07130
O464        O  0.15906099  0.41895344  0.61237368    -0.88670
H465        H  0.11791688  0.39412862  0.64163892    -0.06950
H466        H  0.27143457  0.47587754  0.60256515    -0.07130
C467        C  0.12910676  0.40865127  0.61890788     0.86420
C468        C  0.19421217  0.45797602  0.52227402     0.87010
C469        C  0.24454542  0.46022406  0.60644841     0.87050
H470        H  0.15964041  0.48341835  0.69442176    -0.07110
O471        O  0.14346973  0.01052275  0.62004150    -0.76130
Mg472      Mg  0.18979012  0.41504131  0.65257301     1.58000
H473        H  0.10696279  0.48350857  0.58627742    -0.07120
C474        C  0.09438408  0.36662917  0.53232114     0.92040
O475        O  0.16303668  0.36365906  0.59865221    -0.83360
C476        C  0.19045094  0.36492342  0.59400341     0.92100
O477        O  0.17302970  0.02518887  0.51168488    -0.83350
Mg478      Mg  0.19707361  0.04024089  0.63681830     1.58180
O479        O  0.11448243  0.36610169  0.55385924    -0.81680
O480        O  0.25411820  0.04984197  0.70086819    -0.83380
O481        O  0.36141121  0.28458770  0.12157364    -0.88960
C482        C  0.39590332  0.37248389  0.06695445     0.87070
Mg483      Mg  0.36247951  0.24819435  0.09057878     1.58150
O484        O  0.30686131  0.32365622  0.06296617    -0.88690
O485        O  0.31268219  0.28239108  0.12045623    -0.76020
C486        C  0.30767488  0.23460333  0.93169436     0.92120
O487        O  0.42070726  0.31522514  0.06053754    -0.75840
O488        O  0.31637196  0.21779747  0.95138721    -0.83340
Mg489      Mg  0.40675822  0.33279257  0.10932550     1.57960
C490        C  0.28056455  0.33712321  0.97350123     0.92040
O491        O  0.40714455  0.36875457  0.15198731    -0.81610
H492        H  0.26113866  0.30620586  0.08405974    -0.06950
C493        C  0.35682756  0.31729118  0.98025719     0.86980
O494        O  0.30478369  0.22863760  0.07575658    -0.76120
O495        O  0.37668570  0.34656256  0.08251479    -0.88880
O496        O  0.28203496  0.33929163  0.00503078    -0.81690
C497        C  0.33914064  0.40916386  0.08558618     0.92160
C498        C  0.38088898  0.37079704  0.15816044     0.92010
Mg499      Mg  0.28442437  0.27275135  0.99264532     1.57950
O500        O  0.30012755  0.25590472  0.94391624    -0.81610
O501        O  0.26169067  0.28346603  0.04007148    -0.75850
O502        O  0.34100375  0.38874832  0.10550730    -0.81690
O503        O  0.43568799  0.31232677  0.13643527    -0.83400
O504        O  0.31931408  0.18675372  0.04139662    -0.81720
C505        C  0.27603902  0.30468654  0.06346682     0.86440
O506        O  0.29928332  0.24308375  0.02380081    -0.88870
O507        O  0.33436457  0.31511367  0.99970006    -0.88970
O508        O  0.36287658  0.29299337  0.97698359    -0.76030
Mg509      Mg  0.32949229  0.33542390  0.10819764     1.57970
O510        O  0.33287855  0.40255730  0.05401523    -0.83400
H511        H  0.32095085  0.24906430  0.14571630    -0.07130
O512        O  0.37211642  0.27436290  0.04643472    -0.88670
H513        H  0.41311631  0.28829973  0.01746262    -0.06950
H514        H  0.25979856  0.21793293  0.05515875    -0.07130
C515        C  0.40224687  0.29247320  0.04007832     0.86420
C516        C  0.33191717  0.27233409  0.13154792     0.87010
C517        C  0.28678953  0.22973812  0.05154402     0.87050
H518        H  0.37088603  0.33971651  0.96508078    -0.07110
O519        O  0.38622603  0.38114517  0.04120695    -0.76130
Mg520      Mg  0.34172331  0.24111083  0.00521717     1.58000
H521        H  0.42193740  0.38708767  0.07450137    -0.07120
C522        C  0.43721573  0.28621184  0.12756436     0.92040
O523        O  0.36996542  0.21612864  0.05648122    -0.83360
C524        C  0.34247325  0.19041725  0.06186440     0.92100
O525        O  0.35301846  0.34493097  0.15492055    -0.83350
Mg526      Mg  0.33312448  0.35844405  0.02359918     1.58180
O527        O  0.41728546  0.26505375  0.10615274    -0.81680
O528        O  0.27489099  0.30978430  0.95936054    -0.83380
O529        O  0.23848393  0.16984569  0.71122186    -0.88960
C530        C  0.15201639  0.13921672  0.76767933     0.87070
Mg531      Mg  0.27893357  0.17105652  0.73569687     1.58150
O532        O  0.21051763  0.22798880  0.76478205    -0.88690
O533        O  0.23255298  0.21129342  0.69424054    -0.76020
C534        C  0.30224873  0.22943308  0.89398619     0.92120
O535        O  0.21130448  0.11536679  0.77164792    -0.75840
O536        O  0.31837062  0.22005435  0.87375485    -0.83340
Mg537      Mg  0.19170901  0.12516811  0.72196637     1.57960
C538        C  0.20195775  0.25834302  0.85423492     0.92040
O539        O  0.16194330  0.12758974  0.67481463    -0.81610
H540        H  0.23038336  0.27211121  0.74033149    -0.06950
C541        C  0.21802131  0.18142985  0.84805183     0.86980
O542        O  0.29991102  0.22861951  0.74813858    -0.76120
O543        O  0.17579385  0.15531161  0.74805739    -0.88880
O544        O  0.20285205  0.25975624  0.82287031    -0.81690
C545        C  0.12159691  0.20563062  0.75707792     0.92160
C546        C  0.14801679  0.14556847  0.66980165     0.92010
Mg547      Mg  0.26385145  0.25266779  0.83390952     1.57950
O548        O  0.28129354  0.23759341  0.88234160    -0.81610
O549        O  0.25293670  0.27353942  0.78489205    -0.75850
O550        O  0.13728369  0.19825782  0.73577617    -0.81690
O551        O  0.21366663  0.09532344  0.69544704    -0.83400
O552        O  0.34620157  0.21536091  0.78315369    -0.81720
C553        C  0.23120237  0.25829598  0.76203956     0.86440
O554        O  0.29187701  0.23663777  0.80204182    -0.88870
O555        O  0.22053108  0.20307994  0.82768961    -0.88970
O556        O  0.24195783  0.17486462  0.85144334    -0.76030
Mg557      Mg  0.18558652  0.20155088  0.72300690     1.57970
O558        O  0.13292413  0.21407410  0.78692936    -0.83400
H559        H  0.26641530  0.20009849  0.67352833    -0.07130
O560        O  0.25706627  0.16252161  0.78215602    -0.88670
H561        H  0.24041357  0.12252970  0.81268395    -0.06950
H562        H  0.31407864  0.27449127  0.76868526    -0.07130
C563        C  0.23661408  0.13322011  0.78998274     0.86420
C564        C  0.24606533  0.19327202  0.69154238     0.87010
C565        C  0.30228825  0.24770731  0.77304039     0.87050
H566        H  0.19574717  0.16866533  0.86390188    -0.07110
O567        O  0.14812393  0.15291070  0.79371321    -0.76130
Mg568      Mg  0.29287675  0.19403235  0.82107737     1.58000
H569        H  0.13496595  0.11281139  0.76312860    -0.07120
C570        C  0.24031180  0.09455959  0.70382869     0.92040
O571        O  0.31547097  0.16657673  0.76337508    -0.83360
C572        C  0.34197792  0.19377003  0.76021905     0.92100
O573        O  0.15618570  0.17214656  0.68521396    -0.83350
Mg574      Mg  0.17760938  0.20790643  0.80817955     1.58180
O575        O  0.26185769  0.11587740  0.72382414    -0.81680
O576        O  0.22848966  0.26378543  0.86946057    -0.83380
O577        O  0.44408463  0.65735470  0.77067533    -0.88960
C578        C  0.48104645  0.61911792  0.70240026     0.87070
Mg579      Mg  0.40487669  0.66400020  0.75392999     1.58150
O580        O  0.01594279  0.70783496  0.72079086    -0.88690
O581        O  0.99492935  0.68394917  0.79006225    -0.76020
C582        C  0.44187885  0.72897686  0.59665576     0.92120
O583        O  0.40073205  0.60208533  0.71307150    -0.75840
O584        O  0.41589981  0.71888404  0.61647050    -0.83340
Mg585      Mg  0.43580430  0.60891301  0.75771780     1.57960
C586        C  0.06780562  0.75108841  0.63822309     0.92040
O587        O  0.47522787  0.61597404  0.80012952    -0.81610
H588        H  0.04320770  0.74568889  0.75281396    -0.06950
C589        C  0.47189997  0.67402047  0.63673193     0.86980
O590        O  0.44248449  0.72086124  0.74302734    -0.76120
O591        O  0.47558062  0.63455834  0.72452168    -0.88880
O592        O  0.06695392  0.74695055  0.66965625    -0.81690
C593        C  0.08985276  0.70332537  0.74532863     0.92160
C594        C  0.00760101  0.62841033  0.79953966     0.92010
Mg595      Mg  0.50116913  0.74614194  0.65807352     1.57950
O596        O  0.47068219  0.73661975  0.60874697    -0.81610
O597        O  0.03039780  0.75935679  0.70883832    -0.75850
O598        O  0.07076411  0.70723899  0.76598108    -0.81690
O599        O  0.38788524  0.58488682  0.79181415    -0.83400
O600        O  0.38208806  0.71190899  0.70855420    -0.81720
C601        C  0.03023782  0.73776365  0.72900509     0.86440
O602        O  0.45672024  0.72832971  0.68883043    -0.88870
O603        O  0.49353854  0.69524974  0.65567802    -0.88970
O604        O  0.44164303  0.66884583  0.63641056    -0.76030
Mg605      Mg  0.02035476  0.67128178  0.74605760     1.57970
O606        O  0.08074812  0.69535759  0.71421364    -0.83400
H607        H  0.45485054  0.68259686  0.81446560    -0.07130
O608        O  0.41129345  0.65358375  0.70505188    -0.88670
H609        H  0.37922445  0.61542160  0.67591020    -0.06950
H610        H  0.47370382  0.76646705  0.72168752    -0.07130
C611        C  0.39649740  0.62358941  0.69683673     0.86420
C612        C  0.46392550  0.67497377  0.79273490     0.87010
C613        C  0.45821501  0.73969921  0.71770745     0.87050
H614        H  0.47892969  0.66011928  0.61956558    -0.07110
O615        O  0.00502688  0.63545972  0.68193361    -0.76130
Mg616      Mg  0.41172551  0.68928564  0.66827507     1.58000
H617        H  0.46636258  0.59200155  0.70118978    -0.07120
C618        C  0.36203893  0.58766885  0.78469174     0.92040
O619        O  0.36314150  0.66437314  0.73310165    -0.83360
C620        C  0.36539602  0.69239694  0.73358117     0.92100
O621        O  0.02287126  0.63043471  0.77234821    -0.83350
Mg622      Mg  0.03615495  0.69332457  0.67991174     1.58180
O623        O  0.36406373  0.61014940  0.76490066    -0.81680
O624        O  0.04911276  0.76121434  0.62528563    -0.83380
O625        O  0.43784675  0.78474258  0.36842486    -0.88960
C626        C  0.49115734  0.87226900  0.42309609     0.87070
Mg627      Mg  0.40050540  0.74810093  0.39948330     1.58150
O628        O  0.03125378  0.82318531  0.42608092    -0.88690
O629        O  0.98443233  0.78266528  0.36867344    -0.76020
C630        C  0.44203884  0.73449025  0.55883393     0.92120
O631        O  0.40901397  0.81491710  0.42948895    -0.75840
O632        O  0.41659390  0.71779035  0.53911625    -0.83340
Mg633      Mg  0.44054896  0.83287130  0.38063829     1.57960
C634        C  0.07184015  0.83573671  0.51472709     0.92040
O635        O  0.47598242  0.86940112  0.33797587    -0.81610
H636        H  0.05851683  0.80487489  0.40441989    -0.06950
C637        C  0.47546823  0.81675605  0.50932608     0.86980
O638        O  0.43872491  0.72861604  0.41425553    -0.76120
O639        O  0.48438906  0.84650823  0.40731320    -0.88880
O640        O  0.07186842  0.83770009  0.48321688    -0.81690
C641        C  0.08445937  0.90919652  0.40359763     0.92160
C642        C  0.00422403  0.87146639  0.33145794     0.92010
Mg643      Mg  0.50308975  0.77195067  0.49699619     1.57950
O644        O  0.47098684  0.75560618  0.54651808    -0.81610
O645        O  0.03572548  0.78242542  0.44881770    -0.75850
O646        O  0.06201014  0.88907425  0.38378419    -0.81690
O647        O  0.39128664  0.81237070  0.35355816    -0.83400
O648        O  0.38233987  0.68636250  0.44861966    -0.81720
C649        C  0.04255971  0.80371398  0.42532428     0.86440
O650        O  0.45842699  0.74250997  0.46628604    -0.88870
O651        O  0.49569138  0.81445553  0.48989493    -0.88970
O652        O  0.44508424  0.79258761  0.51273700    -0.76030
Mg653      Mg  0.02039709  0.83562267  0.38110018     1.57970
O654        O  0.08441336  0.90206813  0.43501605    -0.83400
H655        H  0.44263641  0.74936100  0.34393946    -0.07130
O656        O  0.41690821  0.77405021  0.44358099    -0.88670
H657        H  0.38970589  0.78774300  0.47259091    -0.06950
H658        H  0.47289214  0.71766245  0.43477274    -0.07130
C659        C  0.40478478  0.79207187  0.44995160     0.86420
C660        C  0.45501595  0.77256227  0.35806711     0.87010
C661        C  0.45767593  0.72943256  0.43847217     0.87050
H662        H  0.48391675  0.83920069  0.52436193    -0.07110
O663        O  0.00972240  0.88071093  0.44862352    -0.76130
Mg664      Mg  0.41419556  0.74071307  0.48488454     1.58000
H665        H  0.47964726  0.88694733  0.41591345    -0.07120
C666        C  0.36375453  0.78609793  0.36242262     0.92040
O667        O  0.36097205  0.71573855  0.43365667    -0.83360
C668        C  0.36294881  0.69016315  0.42806688     0.92100
O669        O  0.00625015  0.84557839  0.33461312    -0.83350
Mg670      Mg  0.04016286  0.85768377  0.46559938     1.58180
O671        O  0.36256879  0.76493823  0.38394867    -0.81680
O672        O  0.05023820  0.80866307  0.52944488    -0.83380
O673        O  0.37617283  0.58809959  0.05459277    -0.88960
C674        C  0.40963926  0.54062754  0.11815448     0.87070
Mg675      Mg  0.37205976  0.62892869  0.07144624     1.58150
O676        O  0.32235718  0.50351488  0.09849436    -0.88690
O677        O  0.34814940  0.53922563  0.03129119    -0.76020
C678        C  0.30506476  0.59150489  0.22560761     0.92120
O679        O  0.42959653  0.62357737  0.11316757    -0.75840
O680        O  0.31488532  0.61751934  0.20633919    -0.83340
Mg681      Mg  0.42345839  0.59257709  0.06475191     1.57960
C682        C  0.27464809  0.96415716  0.18439267     0.92040
O683        O  0.41730139  0.56050864  0.01657596    -0.81610
H684        H  0.28307420  0.98385313  0.06698230    -0.06950
C685        C  0.35645802  0.55899960  0.18452290     0.86980
O686        O  0.31408896  0.59285814  0.07936061    -0.76120
O687        O  0.39632211  0.54729023  0.09478410    -0.88880
O688        O  0.27911475  0.96555329  0.15325055    -0.81690
C689        C  0.34459540  0.94100988  0.10035308     0.92160
C690        C  0.40543823  0.52866162  0.01487525     0.92010
Mg691      Mg  0.28597144  0.53234641  0.16272095     1.57950
O692        O  0.29624707  0.56273072  0.21263717    -0.81610
O693        O  0.27526614  0.50347288  0.11031929    -0.75850
O694        O  0.36942315  0.96826687  0.09077488    -0.81690
O695        O  0.44780972  0.64187565  0.03296374    -0.83400
O696        O  0.32313364  0.65100723  0.11410491    -0.81720
C697        C  0.29342343  0.49660177  0.09057688     0.86440
O698        O  0.30518756  0.57672529  0.13280648    -0.88870
O699        O  0.33614129  0.53908341  0.16373454    -0.88970
O700        O  0.36252026  0.58941603  0.18662108    -0.76030
Mg701      Mg  0.36039675  0.50615230  0.06560457     1.57970
O702        O  0.32585100  0.94150154  0.12394343    -0.83400
H703        H  0.34899896  0.58096003  0.01294429    -0.07130
O704        O  0.38002660  0.61969325  0.11942678    -0.88670
H705        H  0.41778253  0.64552372  0.15165443    -0.06950
H706        H  0.26767777  0.56153535  0.09957258    -0.07130
C707        C  0.40926730  0.63021963  0.12916276     0.86420
C708        C  0.35755957  0.57020718  0.03205221     0.87010
C709        C  0.29446887  0.57635590  0.10400204     0.87050
H710        H  0.36875186  0.55032037  0.20166952    -0.07110
O711        O  0.39145580  0.51927835  0.14051848    -0.76130
Mg712      Mg  0.34428592  0.62075795  0.15483272     1.58000
H713        H  0.43677969  0.55238749  0.11915300    -0.07120
C714        C  0.44605477  0.66800003  0.04103654     0.92040
O715        O  0.37242060  0.67179520  0.09238139    -0.83360
C716        C  0.34400352  0.66880070  0.09034386     0.92100
O717        O  0.40590355  0.51284660  0.03989862    -0.83350
Mg718      Mg  0.33333656  0.99173030  0.14621659     1.58180
O719        O  0.42723576  0.66720750  0.06485155    -0.81680
O720        O  0.26751555  0.98492552  0.19771097    -0.83380
O721        O  0.22779067  0.58898447  0.43457833    -0.88960
C722        C  0.14645623  0.54165980  0.37095194     0.87070
Mg723      Mg  0.27268172  0.62975102  0.41783076     1.58150
O724        O  0.19554485  0.50313924  0.39041789    -0.88690
O725        O  0.20691245  0.53933776  0.45638852    -0.76020
C726        C  0.30122383  0.59154147  0.26369797     0.92120
O727        O  0.20973993  0.62489229  0.37634281    -0.75840
O728        O  0.31761285  0.61748691  0.28287258    -0.83340
Mg729      Mg  0.18488466  0.59318031  0.42454361     1.57960
C730        C  0.20376084  0.96449667  0.30474094     0.92040
O731        O  0.15937720  0.56040855  0.47268214    -0.81610
H732        H  0.21485724  0.98309336  0.42198771    -0.06950
C733        C  0.21759711  0.55991940  0.30496619     0.86980
O734        O  0.29406987  0.59318655  0.40974351    -0.76120
O735        O  0.16669707  0.54812224  0.39397312    -0.88880
O736        O  0.20060057  0.96568312  0.33586549    -0.81690
C737        C  0.11079252  0.94124359  0.38886340     0.92160
C738        C  0.13925110  0.52856760  0.47337308     0.92010
Mg739      Mg  0.26087214  0.53239391  0.32656778     1.57950
O740        O  0.28107933  0.56283829  0.27676651    -0.81610
O741        O  0.24260321  0.50311795  0.37880839    -0.75850
O742        O  0.11338200  0.96845675  0.39882920    -0.81690
O743        O  0.20975781  0.64212046  0.45650835    -0.83400
O744        O  0.34321258  0.65096105  0.37561737    -0.81720
C745        C  0.21745006  0.49607786  0.39842125     0.86440
O746        O  0.28614718  0.57670205  0.35654804    -0.88870
O747        O  0.21771207  0.53958134  0.32555684    -0.88970
O748        O  0.24212584  0.59027501  0.30301353    -0.76030
Mg749      Mg  0.16078665  0.50652248  0.42310981     1.57970
O750        O  0.12989917  0.94193107  0.36502371    -0.83400
H751        H  0.24804844  0.58027870  0.47515090    -0.07130
O752        O  0.25529180  0.62080413  0.36999645    -0.88670
H753        H  0.24374809  0.64726817  0.33800893    -0.06950
H754        H  0.30837046  0.56121658  0.38970290    -0.07130
C755        C  0.23676504  0.63163843  0.36037282     0.86420
C756        C  0.22855807  0.57027955  0.45626885     0.87010
C757        C  0.29664692  0.57629678  0.38525398     0.87050
H758        H  0.19670283  0.55166515  0.28785202    -0.07110
O759        O  0.14268283  0.52008712  0.34872197    -0.76130
Mg760      Mg  0.29181065  0.62119057  0.33459187     1.58000
H761        H  0.13133813  0.55373992  0.37019199    -0.07120
C762        C  0.23769078  0.66852190  0.44903651     0.92040
O763        O  0.31518421  0.67255129  0.39651035    -0.83360
C764        C  0.34027907  0.66906266  0.39907820     0.92100
O765        O  0.12231248  0.51411567  0.44834203    -0.83350
Mg766      Mg  0.17289782  0.99216924  0.34283313     1.58180
O767        O  0.25619066  0.66839775  0.42531140    -0.81680
O768        O  0.23173419  0.98525078  0.29146112    -0.83380
O769        O  0.29341727  0.87459166  0.21695455    -0.88960
C770        C  0.37835048  0.91246778  0.27788136     0.87070
Mg771      Mg  0.25148704  0.87181522  0.23928701     1.58150
O772        O  0.33465659  0.82576665  0.26056513    -0.88690
O773        O  0.31453692  0.84486566  0.19801546    -0.76020
C774        C  0.23219689  0.80572225  0.39218778     0.92120
O775        O  0.31745804  0.93213590  0.27305472    -0.75840
O776        O  0.21589392  0.81564266  0.37328274    -0.83340
Mg777      Mg  0.33749638  0.92047789  0.22370533     1.57960
C778        C  0.33324891  0.77877699  0.34452130     0.92040
O779        O  0.35683776  0.90523023  0.17367698    -0.81610
H780        H  0.31573930  0.78592209  0.22960271    -0.06950
C781        C  0.31600791  0.85973976  0.34844286     0.86980
O782        O  0.23243583  0.81415342  0.24801925    -0.76120
O783        O  0.35706119  0.89674243  0.25615902    -0.88880
O784        O  0.33626904  0.78469879  0.31356034    -0.81690
C785        C  0.42165157  0.85677435  0.25410272     0.92160
C786        C  0.38168695  0.89990565  0.17491570     0.92010
Mg787      Mg  0.27327892  0.78878096  0.32741912     1.57950
O788        O  0.25315463  0.79796214  0.37894838    -0.81610
O789        O  0.28988424  0.77789390  0.27419719    -0.75850
O790        O  0.41558118  0.88025816  0.24940581    -0.81690
O791        O  0.31149828  0.94310955  0.19395337    -0.83400
O792        O  0.18722546  0.82265520  0.28193242    -0.81720
C793        C  0.31359438  0.79635263  0.25341806     0.86440
O794        O  0.24600436  0.80711479  0.29933172    -0.88870
O795        O  0.31580215  0.83908531  0.32788516    -0.88970
O796        O  0.29114049  0.86520518  0.35114091    -0.76030
Mg797      Mg  0.36552586  0.86436687  0.22652380     1.57970
O798        O  0.40438334  0.83488544  0.27654091    -0.83400
H799        H  0.26996188  0.83910718  0.18196264    -0.07130
O800        O  0.27504500  0.88195830  0.28427770    -0.88670
H801        H  0.28720391  0.92130574  0.31475996    -0.06950
H802        H  0.22210503  0.76876544  0.26715500    -0.07130
C803        C  0.29290662  0.91196280  0.29197919     0.86420
C804        C  0.29146728  0.85234510  0.19824660     0.87010
C805        C  0.23324093  0.79547603  0.27152097     0.87050
H806        H  0.33734477  0.87291494  0.36493351    -0.07110
O807        O  0.38607313  0.89678229  0.29917457    -0.76130
Mg808      Mg  0.24021046  0.84567141  0.32148387     1.58000
H809        H  0.39112492  0.93962607  0.27816596    -0.07120
C810        C  0.28528810  0.94414293  0.20372923     0.92040
O811        O  0.21271701  0.87407518  0.26865197    -0.83360
C812        C  0.18950153  0.84555669  0.26157111     0.92100
O813        O  0.40111546  0.91191388  0.19887823    -0.83350
Mg814      Mg  0.36085683  0.83895703  0.30570659     1.58180
O815        O  0.26715684  0.92662803  0.22830261    -0.81680
O816        O  0.30573532  0.77203845  0.35907715    -0.83380
O817        O  0.15528660  0.72778237  0.60286845    -0.88960
C818        C  0.11979855  0.64554609  0.54108353     0.87070
Mg819      Mg  0.16033766  0.77289606  0.58590855     1.58150
O820        O  0.20755089  0.69576786  0.55838653    -0.88690
O821        O  0.18256960  0.70679638  0.62741827    -0.76020
C822        C  0.22694175  0.80040790  0.43016327     0.92120
O823        O  0.10164908  0.71047170  0.54446280    -0.75840
O824        O  0.21735252  0.81670095  0.44987616    -0.83340
Mg825      Mg  0.10756009  0.68557455  0.59279553     1.57960
C826        C  0.25037328  0.69910827  0.46942039     0.92040
O827        O  0.11266418  0.65970626  0.64101651    -0.81610
H828        H  0.24819666  0.71393148  0.58799584    -0.06950
C829        C  0.17258761  0.71592027  0.47204314     0.86980
O830        O  0.21795976  0.79300539  0.57662709    -0.76120
O831        O  0.13401877  0.66654691  0.56340923    -0.88880
O832        O  0.24797227  0.69645278  0.50082846    -0.81690
C833        C  0.18636582  0.61312709  0.56176956     0.92160
C834        C  0.12403159  0.63934551  0.64364005     0.92010
Mg835      Mg  0.24366959  0.75828228  0.49245286     1.57950
O836        O  0.23434976  0.77920862  0.44258952    -0.81610
O837        O  0.25543236  0.74031741  0.54420777    -0.75850
O838        O  0.16065283  0.61492459  0.56918848    -0.81690
O839        O  0.08394483  0.71073046  0.62431565    -0.83400
O840        O  0.20934690  0.84314133  0.54229677    -0.81720
C841        C  0.23725155  0.71649883  0.56490885     0.86440
O842        O  0.22602611  0.78494777  0.52308417    -0.88870
O843        O  0.19281508  0.71560554  0.49249923    -0.88970
O844        O  0.16768218  0.74108352  0.47003482    -0.76030
Mg845      Mg  0.17005892  0.66166259  0.59291554     1.57970
O846        O  0.20378938  0.62973462  0.53630281    -0.83400
H847        H  0.18147696  0.74786735  0.64505106    -0.07130
O848        O  0.15131112  0.75552408  0.53773859    -0.88670
H849        H  0.11325444  0.74394955  0.50600992    -0.06950
H850        H  0.26393778  0.80653196  0.55595441    -0.07130
C851        C  0.12191815  0.73716078  0.52835962     0.86420
C852        C  0.17329705  0.72847507  0.62602069     0.87010
C853        C  0.23715181  0.79527451  0.55178961     0.87050
H854        H  0.15950125  0.69497090  0.45501259    -0.07110
O855        O  0.13714557  0.64105204  0.51867299    -0.76130
Mg856      Mg  0.18736230  0.79119970  0.50166088     1.58000
H857        H  0.09262132  0.63045615  0.54106561    -0.07120
C858        C  0.08618466  0.73899128  0.61764406     0.92040
O859        O  0.16050289  0.81545777  0.56513507    -0.83360
C860        C  0.18891135  0.84077873  0.56640875     0.92100
O861        O  0.12475360  0.62330575  0.61884568    -0.83350
Mg862      Mg  0.19493717  0.67070433  0.51134675     1.58180
O863        O  0.10566221  0.75802557  0.59476864    -0.81680
O864        O  0.25940433  0.72761053  0.45671329    -0.83380
O865        O  0.09050721  0.74110552  0.87528280    -0.88960
C866        C  0.03526196  0.65250519  0.92671085     0.87070
Mg867      Mg  0.12823026  0.78079810  0.90269098     1.58150
O868        O  0.50313304  0.71001213  0.92835099    -0.88690
O869        O  0.04359934  0.73540030  0.85740609    -0.76020
C870        C  0.08893990  0.80007510  0.06075638     0.92120
O871        O  0.11532759  0.71186401  0.93428093    -0.75840
O872        O  0.11441268  0.81673811  0.04057464    -0.83340
Mg873      Mg  0.08912260  0.69432923  0.88243659     1.57960
C874        C  0.46392958  0.69914645  0.02146043     0.92040
O875        O  0.05848049  0.66564788  0.83198111    -0.81610
H876        H  0.47565622  0.72748815  0.90632093    -0.06950
C877        C  0.05606308  0.71704271  0.01320311     0.86980
O878        O  0.08971917  0.80007590  0.91443011    -0.76120
O879        O  0.04194398  0.67587094  0.90714370    -0.88880
O880        O  0.46214442  0.69765191  0.98990452    -0.81690
C881        C  0.43836721  0.62322026  0.91513530     0.92160
C882        C  0.02645133  0.65173927  0.82691301     0.92010
Mg883      Mg  0.02872316  0.76171897  0.99968731     1.57950
O884        O  0.06018795  0.77897909  0.04880536    -0.81610
O885        O  0.99628694  0.74954909  0.95123301    -0.75850
O886        O  0.46033890  0.63939359  0.89314223    -0.81690
O887        O  0.14283493  0.72020662  0.85879817    -0.83400
O888        O  0.14630607  0.84570319  0.94916590    -0.81720
C889        C  0.49115544  0.72891631  0.92738922     0.86440
O890        O  0.07240842  0.79033421  0.96799829    -0.88870
O891        O  0.03689070  0.71916976  0.99274852    -0.88970
O892        O  0.08612378  0.74142423  0.01707730    -0.76030
Mg893      Mg  0.00612326  0.68730019  0.88383070     1.57970
O894        O  0.44285893  0.63247737  0.94606303    -0.83400
H895        H  0.08912228  0.77028788  0.83871943    -0.07130
O896        O  0.11263741  0.75675208  0.94746775    -0.88670
H897        H  0.13423418  0.73812897  0.97768825    -0.06950
H898        H  0.05596659  0.81195408  0.93507122    -0.07130
C899        C  0.12118097  0.73582109  0.95436635     0.86420
C900        C  0.07520133  0.74927044  0.85569527     0.87010
C901        C  0.07181985  0.80103254  0.93923933     0.87050
H902        H  0.04693170  0.69476052  0.02871111    -0.07110
O903        O  0.01887009  0.64901089  0.95367531    -0.76130
Mg904      Mg  0.11630286  0.79230411  0.98704644     1.58000
H905        H  0.04496012  0.63573203  0.92149961    -0.07120
C906        C  0.16902181  0.74615630  0.87053352     0.92040
O907        O  0.16858141  0.81745215  0.93255398    -0.83360
C908        C  0.16569180  0.84256343  0.92761694     0.92100
O909        O  0.00813713  0.65940574  0.84388743    -0.83350
Mg910      Mg  0.49130930  0.67600319  0.97074184     1.58180
O911        O  0.16698911  0.76443356  0.89330764    -0.81680
O912        O  0.48346950  0.72724595  0.03496113    -0.83380
O913        O  0.09544411  0.87507078  0.27264746    -0.88960
C914        C  0.04866478  0.91287557  0.21105078     0.87070
Mg915      Mg  0.13473183  0.87212112  0.25086508     1.58150
O916        O  0.50587871  0.82623320  0.22909216    -0.88690
O917        O  0.04462981  0.84546913  0.29173517    -0.76020
C918        C  0.08909877  0.80536711  0.09869058     0.92120
O919        O  0.12906351  0.93222365  0.21603876    -0.75840
O920        O  0.11527179  0.81535104  0.11757771    -0.83340
Mg921      Mg  0.09732554  0.92098485  0.26540787     1.57960
C922        C  0.46060519  0.77904150  0.14543670     0.92040
O923        O  0.06258458  0.90600336  0.31549717    -0.81610
H924        H  0.48473714  0.78648627  0.26040841    -0.06950
C925        C  0.05901213  0.85978558  0.14118140     0.86980
O926        O  0.09625105  0.81442046  0.24270513    -0.76120
O927        O  0.05411513  0.89724571  0.23308935    -0.88880
O928        O  0.46349820  0.78497003  0.17634352    -0.81690
C929        C  0.44965710  0.85691767  0.23467992     0.92160
C930        C  0.03235491  0.90054865  0.31432491     0.92010
Mg931      Mg  0.03056195  0.78893148  0.16300462     1.57950
O932        O  0.06039067  0.79778930  0.11187819    -0.81610
O933        O  0.00277308  0.77826481  0.21609562    -0.75850
O934        O  0.47909787  0.88052834  0.23929705    -0.81690
O935        O  0.14593478  0.94368715  0.29511174    -0.83400
O936        O  0.15023727  0.82266292  0.20910611    -0.81720
C937        C  0.49744913  0.79682521  0.23657144     0.86440
O938        O  0.07599123  0.80714890  0.19126136    -0.88870
O939        O  0.03848710  0.83931448  0.16192450    -0.88970
O940        O  0.08929300  0.86508373  0.13862547    -0.76030
Mg941      Mg  0.01318646  0.86479837  0.26275436     1.57970
O942        O  0.44527930  0.83509318  0.21238696    -0.83400
H943        H  0.08342787  0.83983251  0.30813893    -0.07130
O944        O  0.12163302  0.88204256  0.20554353    -0.88670
H945        H  0.14871407  0.92126116  0.17465549    -0.06950
H946        H  0.06135641  0.76895246  0.22391782    -0.07130
C947        C  0.13363343  0.91199791  0.19747310     0.86420
C948        C  0.07516323  0.85295723  0.29158953     0.87010
C949        C  0.07693890  0.79563888  0.21928549     0.87050
H950        H  0.05096009  0.87291835  0.12439571    -0.07110
O951        O  0.02549828  0.89708891  0.18966929    -0.76130
Mg952      Mg  0.12049313  0.84558765  0.16893723     1.58000
H953        H  0.06295454  0.94003639  0.21053907    -0.07120
C954        C  0.17316411  0.94462434  0.28543236     0.92040
O955        O  0.17593621  0.87406627  0.22217347    -0.83360
C956        C  0.17071232  0.84555429  0.22941086     0.92100
O957        O  0.02471551  0.91219564  0.29012153    -0.83350
Mg958      Mg  0.49310033  0.83923838  0.18363439     1.58180
O959        O  0.17377606  0.92700390  0.26107245    -0.81680
O960        O  0.48151003  0.77242547  0.13096076    -0.83380
O961        O  0.28952654  0.94347790  0.94724758    -0.88960
C962        C  0.37676597  0.99785733  0.89260735     0.87070
Mg963      Mg  0.24963427  0.90410971  0.92199449     1.58150
O964        O  0.31888561  0.52916365  0.89326185    -0.88690
O965        O  0.29450980  0.49056383  0.96394858    -0.76020
C966        C  0.22788668  0.94043121  0.76414212     0.92120
O967        O  0.31810147  0.91668423  0.88746303    -0.75840
O968        O  0.21138563  0.91494309  0.78414201    -0.83340
Mg969      Mg  0.33686233  0.94597697  0.93752599     1.57960
C970        C  0.32986948  0.56774576  0.80263146     0.92040
O971        O  0.36674213  0.97829317  0.98480562    -0.81610
H972        H  0.30082230  0.55591721  0.91642526    -0.06950
C973        C  0.31150592  0.97462936  0.80977046     0.86980
O974        O  0.22866723  0.94097664  0.90954110    -0.76120
O975        O  0.35294127  0.99137144  0.91180232    -0.88880
O976        O  0.33012664  0.56919585  0.83407473    -0.81690
C977        C  0.40730541  0.59341490  0.90374168     0.92160
C978        C  0.38021514  0.51009996  0.98976866     0.92010
Mg979      Mg  0.26670020  0.00161010  0.82401572     1.57950
O980        O  0.24902195  0.96917796  0.77604672    -0.81610
O981        O  0.27808868  0.53445727  0.87205559    -0.75850
O982        O  0.39020708  0.57203072  0.92566739    -0.81690
O983        O  0.31490142  0.89525162  0.96394909    -0.83400
O984        O  0.18351771  0.88277205  0.87615206    -0.81720
C985        C  0.29938175  0.54041449  0.89516824     0.86440
O986        O  0.23815901  0.95789258  0.85603494    -0.88870
O987        O  0.30936549  0.99403915  0.83020090    -0.88970
O988        O  0.28730562  0.94439859  0.80645408    -0.76030
Mg989      Mg  0.34212749  0.52751798  0.93634319     1.57970
O990        O  0.39773345  0.58926951  0.87304088    -0.83400
H991        H  0.26047703  0.94560345  0.98408107    -0.07130
O992        O  0.27234404  0.91801614  0.87606923    -0.88670
H993        H  0.28988443  0.89501149  0.84581010    -0.06950
H994        H  0.21544455  0.97350437  0.88916377    -0.07130
C995        C  0.29313336  0.90933587  0.86858901     0.86420
C996        C  0.28124147  0.95916459  0.96656790     0.87010
C997        C  0.22717134  0.95834549  0.88485302     0.87050
H998        H  0.33367429  0.98367935  0.79379976    -0.07110
O999        O  0.38062893  0.51380377  0.86555100    -0.76130
Mg1000     Mg  0.23653101  0.91380559  0.83716016     1.58000
H1001       H  0.39350058  0.98826437  0.89818048    -0.07120
C1002       C  0.28876651  0.86780251  0.95521373     0.92040
O1003       O  0.21311856  0.86228324  0.89346671    -0.83360
C1004       C  0.18728676  0.86421532  0.89798125     0.92100
O1005       O  0.37111533  0.52791804  0.97471420    -0.83350
Mg1006     Mg  0.35277339  0.54050016  0.85038284     1.58180
O1007       O  0.26772069  0.86688984  0.93405340    -0.81680
O1008       O  0.30256503  0.54698982  0.78834965    -0.83380
O1009       O  0.16874737  0.94196948  0.53977894    -0.88960
C1010       C  0.13318282  0.99431356  0.59293747     0.87070
Mg1011     Mg  0.16917719  0.90413700  0.56767666     1.58150
O1012       O  0.22247776  0.52858652  0.59641932    -0.88690
O1013       O  0.21305432  0.48902500  0.52671324    -0.76020
C1014       C  0.22273968  0.94093157  0.72647982     0.92120
O1015       O  0.11114061  0.91437894  0.59887706    -0.75840
O1016       O  0.21478416  0.91602427  0.70610399    -0.83340
Mg1017     Mg  0.12346786  0.94409717  0.54890026     1.57960
C1018       C  0.24880209  0.57153342  0.68622916     0.92040
O1019       O  0.12632052  0.97692178  0.50201259    -0.81610
H1020       H  0.26766170  0.55771494  0.57467010    -0.06950
C1021       C  0.17373166  0.97514907  0.67894217     0.86980
O1022       O  0.22646531  0.94223218  0.58170780    -0.76120
O1023       O  0.15198638  0.98863906  0.57507799    -0.88880
O1024       O  0.24817420  0.57188295  0.65465639    -0.81690
C1025       C  0.19256782  0.58816369  0.57881122     0.92160
C1026       C  0.14575251  0.50854867  0.49705091     0.92010
Mg1027     Mg  0.24601133  0.00349790  0.66691134     1.57950
O1028       O  0.23001833  0.96993388  0.71504556    -0.81610
O1029       O  0.26878491  0.53692413  0.61963915    -0.75850
O1030       O  0.19292237  0.56677380  0.55992424    -0.81690
O1031       O  0.09560020  0.89385519  0.52269795    -0.83400
O1032       O  0.21305667  0.88392638  0.61519456    -0.81720
C1033       C  0.25346362  0.54168669  0.59566895     0.86440
O1034       O  0.23234573  0.95971759  0.63488690    -0.88870
O1035       O  0.19590333  0.99536767  0.65939062    -0.88970
O1036       O  0.16812956  0.94499868  0.68200367    -0.76030
Mg1037     Mg  0.19971094  0.52496569  0.55168870     1.57970
O1038       O  0.19684796  0.58705582  0.61058045    -0.83400
H1039       H  0.20227368  0.94467630  0.50542282    -0.07130
O1040       O  0.15906090  0.91895340  0.61237368    -0.88670
H1041       H  0.11791678  0.89412857  0.64163890    -0.06950
H1042       H  0.27143449  0.97587751  0.60256516    -0.07130
C1043       C  0.12910666  0.90865121  0.61890786     0.86420
C1044       C  0.19421208  0.95797598  0.52227400     0.87010
C1045       C  0.24454533  0.96022403  0.60644842     0.87050
H1046       H  0.15964031  0.98341831  0.69442175    -0.07110
O1047       O  0.14346986  0.51052285  0.62004151    -0.76130
Mg1048     Mg  0.18979003  0.91504127  0.65257302     1.58000
H1049       H  0.10696264  0.98350846  0.58627742    -0.07120
C1050       C  0.09438404  0.86662909  0.53232110     0.92040
O1051       O  0.16303662  0.86365904  0.59865220    -0.83360
C1052       C  0.19045087  0.86492340  0.59400343     0.92100
O1053       O  0.17302986  0.52518895  0.51168491    -0.83350
Mg1054     Mg  0.19707374  0.54024096  0.63681832     1.58180
O1055       O  0.11448237  0.86610163  0.55385922    -0.81680
O1056       O  0.25411828  0.54984198  0.70086823    -0.83380
O1057       O  0.36141121  0.78458770  0.12157370    -0.88960
C1058       C  0.39590341  0.87248389  0.06695449     0.87070
Mg1059     Mg  0.36247950  0.74819433  0.09057887     1.58150
O1060       O  0.30686141  0.82365630  0.06296615    -0.88690
O1061       O  0.31268219  0.78239111  0.12045621    -0.76020
C1062       C  0.30767495  0.73460337  0.93169436     0.92120
O1063       O  0.42070730  0.81522509  0.06053765    -0.75840
O1064       O  0.31637202  0.71779750  0.95138722    -0.83340
Mg1065     Mg  0.40675823  0.83279255  0.10932558     1.57960
C1066       C  0.28056471  0.83712329  0.97350118     0.92040
O1067       O  0.40714456  0.86875457  0.15198736    -0.81610
H1068       H  0.26113875  0.80620598  0.08405969    -0.06950
C1069       C  0.35682768  0.81729120  0.98025721     0.86980
O1070       O  0.30478370  0.72863761  0.07575661    -0.76120
O1071       O  0.37668577  0.84656256  0.08251482    -0.88880
O1072       O  0.28203512  0.83929173  0.00503074    -0.81690
C1073       C  0.33914080  0.90916394  0.08558616     0.92160
C1074       C  0.38088900  0.87079704  0.15816048     0.92010
Mg1075     Mg  0.28442447  0.77275141  0.99264532     1.57950
O1076       O  0.30012764  0.75590477  0.94391625    -0.81610
O1077       O  0.26169076  0.78346612  0.04007145    -0.75850
O1078       O  0.34100387  0.88874838  0.10550728    -0.81690
O1079       O  0.43568797  0.81232675  0.13643540    -0.83400
O1080       O  0.31931408  0.68675372  0.04139667    -0.81720
C1081       C  0.27603912  0.80468664  0.06346679     0.86440
O1082       O  0.29928338  0.74308379  0.02380083    -0.88870
O1083       O  0.33436469  0.81511371  0.99970007    -0.88970
O1084       O  0.36287668  0.79299338  0.97698363    -0.76030
Mg1085     Mg  0.32949235  0.83542394  0.10819764     1.57970
O1086       O  0.33287874  0.90255738  0.05401520    -0.83400
H1087       H  0.32095080  0.74906430  0.14571632    -0.07130
O1088       O  0.37211647  0.77436288  0.04643478    -0.88670
H1089       H  0.41311638  0.78829968  0.01746273    -0.06950
H1090       H  0.25979859  0.71793297  0.05515874    -0.07130
C1091       C  0.40224692  0.79247316  0.04007842     0.86420
C1092       C  0.33191715  0.77233410  0.13154794     0.87010
C1093       C  0.28678957  0.72973815  0.05154403     0.87050
H1094       H  0.37088617  0.83971653  0.96508081    -0.07110
O1095       O  0.38622616  0.88114518  0.04120697    -0.76130
Mg1096     Mg  0.34172336  0.74111083  0.00521722     1.58000
H1097       H  0.42193749  0.88708764  0.07450142    -0.07120
C1098       C  0.43721571  0.78621181  0.12756451     0.92040
O1099       O  0.36996541  0.71612860  0.05648132    -0.83360
C1100       C  0.34247322  0.69041722  0.06186448     0.92100
O1101       O  0.35301848  0.84493098  0.15492057    -0.83350
Mg1102     Mg  0.33312463  0.85844411  0.02359916     1.58180
O1103       O  0.41728544  0.76505371  0.10615289    -0.81680
O1104       O  0.27489113  0.80978436  0.95936051    -0.83380
O1105       O  0.23848390  0.66984564  0.71122191    -0.88960
C1106       C  0.15201638  0.63921667  0.76767940     0.87070
Mg1107     Mg  0.27893358  0.67105652  0.73569688     1.58150
O1108       O  0.21051761  0.72798875  0.76478205    -0.88690
O1109       O  0.23255292  0.71129334  0.69424053    -0.76020
C1110       C  0.30224878  0.72943312  0.89398620     0.92120
O1111       O  0.21130452  0.61536678  0.77164798    -0.75840
O1112       O  0.31837067  0.72005440  0.87375485    -0.83340
Mg1113     Mg  0.19170901  0.62516805  0.72196643     1.57960
C1114       C  0.20195776  0.75834305  0.85423490     0.92040
O1115       O  0.16194329  0.62758964  0.67481468    -0.81610
H1116       H  0.23038333  0.77211115  0.74033146    -0.06950
C1117       C  0.21802134  0.68142987  0.84805186     0.86980
O1118       O  0.29991100  0.72861951  0.74813857    -0.76120
O1119       O  0.17579382  0.65531154  0.74805744    -0.88880
O1120       O  0.20285206  0.75975625  0.82287030    -0.81690
C1121       C  0.12159688  0.70563056  0.75707793     0.92160
C1122       C  0.14801677  0.64556836  0.66980169     0.92010
Mg1123     Mg  0.26385146  0.75266780  0.83390952     1.57950
O1124       O  0.28129359  0.73759344  0.88234161    -0.81610
O1125       O  0.25293669  0.77353938  0.78489203    -0.75850
O1126       O  0.13728364  0.69825772  0.73577619    -0.81690
O1127       O  0.21366665  0.59532339  0.69544711    -0.83400
O1128       O  0.34620161  0.71536096  0.78315368    -0.81720
C1129       C  0.23120234  0.75829594  0.76203955     0.86440
O1130       O  0.29187703  0.73663778  0.80204182    -0.88870
O1131       O  0.22053110  0.70307995  0.82768963    -0.88970
O1132       O  0.24195787  0.67486465  0.85144336    -0.76030
Mg1133     Mg  0.18558647  0.70155079  0.72300693     1.57970
O1134       O  0.13292412  0.71407408  0.78692937    -0.83400
H1135       H  0.26641522  0.70009840  0.67352833    -0.07130
O1136       O  0.25706631  0.66252161  0.78215604    -0.88670
H1137       H  0.24041364  0.62252972  0.81268400    -0.06950
H1138       H  0.31407862  0.77449127  0.76868524    -0.07130
C1139       C  0.23661412  0.63322012  0.78998279     0.86420
C1140       C  0.24606528  0.69327194  0.69154239     0.87010
C1141       C  0.30228824  0.74770731  0.77304037     0.87050
H1142       H  0.19574721  0.66866534  0.86390191    -0.07110
O1143       O  0.14812393  0.65291067  0.79371327    -0.76130
Mg1144     Mg  0.29287680  0.69403238  0.82107737     1.58000
H1145       H  0.13496594  0.61281133  0.76312870    -0.07120
C1146       C  0.24031184  0.59455957  0.70382874     0.92040
O1147       O  0.31547104  0.66657679  0.76337503    -0.83360
C1148       C  0.34197797  0.69377011  0.76021901     0.92100
O1149       O  0.15618564  0.67214644  0.68521400    -0.83350
Mg1150     Mg  0.17760939  0.70790642  0.80817957     1.58180
O1151       O  0.26185774  0.61587740  0.72382418    -0.81680
O1152       O  0.22848967  0.76378545  0.86946056    -0.83380
O1153       O  0.94408467  0.15735467  0.77067539    -0.88960
C1154       C  0.98104643  0.11911785  0.70240032     0.87070
Mg1155     Mg  0.90487675  0.16400020  0.75393010     1.58150
O1156       O  0.51594267  0.20783496  0.72079087    -0.88690
O1157       O  0.49492921  0.18394908  0.79006220    -0.76020
C1158       C  0.94187885  0.22897686  0.59665582     0.92120
O1159       O  0.90073203  0.10208530  0.71307157    -0.75840
O1160       O  0.91589980  0.21888401  0.61647056    -0.83340
Mg1161     Mg  0.93580427  0.10891294  0.75771788     1.57960
C1162       C  0.56780556  0.25108845  0.63822316     0.92040
O1163       O  0.97522781  0.11597394  0.80012961    -0.81610
H1164       H  0.54320755  0.24568885  0.75281402    -0.06950
C1165       C  0.97189996  0.17402044  0.63673199     0.86980
O1166       O  0.94248453  0.22086123  0.74302742    -0.76120
O1167       O  0.97558061  0.13455826  0.72452176    -0.88880
O1168       O  0.56695384  0.24695059  0.66965632    -0.81690
C1169       C  0.58985268  0.20332544  0.74532865     0.92160
C1170       C  0.50760103  0.12841032  0.79953950     0.92010
Mg1171     Mg  0.00116911  0.24614191  0.65807360     1.57950
O1172       O  0.97068218  0.23661975  0.60874703    -0.81610
O1173       O  0.53039770  0.25935680  0.70883838    -0.75850
O1174       O  0.57076400  0.20723902  0.76598109    -0.81690
O1175       O  0.88788519  0.08488677  0.79181422    -0.83400
O1176       O  0.88208800  0.21190891  0.70855422    -0.81720
C1177       C  0.53023770  0.23776364  0.72900514     0.86440
O1178       O  0.95672022  0.22832967  0.68883050    -0.88870
O1179       O  0.99353853  0.19524971  0.65567807    -0.88970
O1180       O  0.94164302  0.16884580  0.63641062    -0.76030
Mg1181     Mg  0.52035468  0.17128178  0.74605754     1.57970
O1182       O  0.58074806  0.19535765  0.71421366    -0.83400
H1183       H  0.95485056  0.18259679  0.81446567    -0.07130
O1184       O  0.91129342  0.15358373  0.70505196    -0.88670
H1185       H  0.87922442  0.11542157  0.67591029    -0.06950
H1186       H  0.97370382  0.26646703  0.72168757    -0.07130
C1187       C  0.89649738  0.12358939  0.69683681     0.86420
C1188       C  0.96392552  0.17497372  0.79273498     0.87010
C1189       C  0.95821501  0.23969919  0.71770752     0.87050
H1190       H  0.97892968  0.16011925  0.61956563    -0.07110
O1191       O  0.50502688  0.13545976  0.68193355    -0.76130
Mg1192     Mg  0.91172550  0.18928560  0.66827513     1.58000
H1193       H  0.96636256  0.09200149  0.70118983    -0.07120
C1194       C  0.86203891  0.08766883  0.78469181     0.92040
O1195       O  0.86314156  0.16437317  0.73310188    -0.83360
C1196       C  0.86539603  0.19239695  0.73358126     0.92100
O1197       O  0.52287124  0.13043468  0.77234803    -0.83350
Mg1198     Mg  0.53615490  0.19332461  0.67991175     1.58180
O1199       O  0.86406375  0.11014942  0.76490076    -0.81680
O1200       O  0.54911272  0.26121440  0.62528569    -0.83380
O1201       O  0.93784677  0.28474265  0.36842492    -0.88960
C1202       C  0.99115727  0.37226907  0.42309614     0.87070
Mg1203     Mg  0.90050542  0.24810098  0.39948334     1.58150
O1204       O  0.53125373  0.32318542  0.42608103    -0.88690
O1205       O  0.48443238  0.28266545  0.36867347    -0.76020
C1206       C  0.94203884  0.23449029  0.55883400     0.92120
O1207       O  0.90901393  0.31491712  0.42948898    -0.75840
O1208       O  0.91659390  0.21779039  0.53911631    -0.83340
Mg1209     Mg  0.94054893  0.33287134  0.38063832     1.57960
C1210       C  0.57184020  0.33573682  0.51472717     0.92040
O1211       O  0.97598238  0.36940116  0.33797589    -0.81610
H1212       H  0.55851682  0.30487506  0.40441997    -0.06950
C1213       C  0.97546817  0.31675611  0.50932615     0.86980
O1214       O  0.93872495  0.22861613  0.41425560    -0.76120
O1215       O  0.98438902  0.34650832  0.40731324    -0.88880
O1216       O  0.57186842  0.33770021  0.48321696    -0.81690
C1217       C  0.58445932  0.40919665  0.40359775     0.92160
C1218       C  0.50422402  0.37146654  0.33145794     0.92010
Mg1219     Mg  0.00308975  0.27195079  0.49699627     1.57950
O1220       O  0.97098683  0.25560625  0.54651817    -0.81610
O1221       O  0.53572550  0.28242556  0.44881778    -0.75850
O1222       O  0.56201010  0.38907439  0.38378431    -0.81690
O1223       O  0.89128660  0.31237070  0.35355817    -0.83400
O1224       O  0.88233988  0.18636253  0.44861972    -0.81720
C1225       C  0.54255970  0.30371412  0.42532437     0.86440
O1226       O  0.95842700  0.24251005  0.46628612    -0.88870
O1227       O  0.99569133  0.31445561  0.48989500    -0.88970
O1228       O  0.94508419  0.29258765  0.51273707    -0.76030
Mg1229     Mg  0.52039709  0.33562282  0.38110028     1.57970
O1230       O  0.58441331  0.40206826  0.43501618    -0.83400
H1231       H  0.94263647  0.24936109  0.34393952    -0.07130
O1232       O  0.91690819  0.27405025  0.44358104    -0.88670
H1233       H  0.88970585  0.28774303  0.47259094    -0.06950
H1234       H  0.97289219  0.21766255  0.43477283    -0.07130
C1235       C  0.90478474  0.29207190  0.44995164     0.86420
C1236       C  0.95501599  0.27256236  0.35806717     0.87010
C1237       C  0.95767596  0.22943265  0.43847224     0.87050
H1238       H  0.98391666  0.33920074  0.52436202    -0.07110
O1239       O  0.50972233  0.38071100  0.44862368    -0.76130
Mg1240     Mg  0.91419555  0.24071311  0.48488460     1.58000
H1241       H  0.97964718  0.38694739  0.41591349    -0.07120
C1242       C  0.86375451  0.28609792  0.36242263     0.92040
O1243       O  0.86097208  0.21573858  0.43365667    -0.83360
C1244       C  0.86294882  0.19016318  0.42806692     0.92100
O1245       O  0.50625026  0.34557860  0.33461320    -0.83350
Mg1246     Mg  0.54016282  0.35768387  0.46559950     1.58180
O1247       O  0.86256879  0.26493823  0.38394869    -0.81680
O1248       O  0.55023823  0.30866318  0.52944497    -0.83380
O1249       O  0.87617290  0.08809982  0.05459280    -0.88960
C1250       C  0.90963935  0.04062773  0.11815446     0.87070
Mg1251     Mg  0.87205983  0.12892890  0.07144632     1.58150
O1252       O  0.82235726  0.00351499  0.09849440    -0.88690
O1253       O  0.84814940  0.03922582  0.03129130    -0.76020
C1254       C  0.80506479  0.09150496  0.22560763     0.92120
O1255       O  0.92959660  0.12357754  0.11316760    -0.75840
O1256       O  0.81488534  0.11751941  0.20633922    -0.83340
Mg1257     Mg  0.92345844  0.09257729  0.06475191     1.57960
C1258       C  0.77464802  0.46415712  0.18439275     0.92040
O1259       O  0.91730138  0.06050885  0.01657593    -0.81610
H1260       H  0.78307408  0.48385305  0.06698239    -0.06950
C1261       C  0.85645810  0.05899973  0.18452292     0.86980
O1262       O  0.81408903  0.09285832  0.07936066    -0.76120
O1263       O  0.89632218  0.04729042  0.09478410    -0.88880
O1264       O  0.77911466  0.46555323  0.15325063    -0.81690
C1265       C  0.84459534  0.44100987  0.10035318     0.92160
C1266       C  0.90543822  0.02866182  0.01487526     0.92010
Mg1267     Mg  0.78597151  0.03234650  0.16272097     1.57950
O1268       O  0.79624713  0.06273080  0.21263718    -0.81610
O1269       O  0.77526621  0.00347297  0.11031932    -0.75850
O1270       O  0.86942306  0.46826686  0.09077493    -0.81690
O1271       O  0.94780975  0.14187586  0.03296376    -0.83400
O1272       O  0.82313363  0.15100731  0.11410492    -0.81720
C1273       C  0.79342350  0.99660186  0.09057691     0.86440
O1274       O  0.80518762  0.07672539  0.13280650    -0.88870
O1275       O  0.83614137  0.03908353  0.16373456    -0.88970
O1276       O  0.86252031  0.08941616  0.18662111    -0.76030
Mg1277     Mg  0.86039682  0.00615248  0.06560459     1.57970
O1278       O  0.82585095  0.44150152  0.12394354    -0.83400
H1279       H  0.84899891  0.08096019  0.01294440    -0.07130
O1280       O  0.88002666  0.11969340  0.11942683    -0.88670
H1281       H  0.91778259  0.14552385  0.15165449    -0.06950
H1282       H  0.76767784  0.06153546  0.09957259    -0.07130
C1283       C  0.90926736  0.13021978  0.12916281     0.86420
C1284       C  0.85755957  0.07020737  0.03205229     0.87010
C1285       C  0.79446894  0.07635602  0.10400207     0.87050
H1286       H  0.86875194  0.05032051  0.20166954    -0.07110
O1287       O  0.89145592  0.01927853  0.14051847    -0.76130
Mg1288     Mg  0.84428595  0.12075806  0.15483276     1.58000
H1289       H  0.93677979  0.05238770  0.11915297    -0.07120
C1290       C  0.94605481  0.16800024  0.04103658     0.92040
O1291       O  0.87242066  0.17179540  0.09238155    -0.83360
C1292       C  0.84400356  0.16880083  0.09034393     0.92100
O1293       O  0.90590364  0.01284686  0.03989861    -0.83350
Mg1294     Mg  0.83333647  0.49173027  0.14621668     1.58180
O1295       O  0.92723583  0.16720771  0.06485164    -0.81680
O1296       O  0.76751548  0.48492546  0.19771105    -0.83380
O1297       O  0.72779057  0.08898429  0.43457831    -0.88960
C1298       C  0.64645618  0.04165964  0.37095187     0.87070
Mg1299     Mg  0.77268162  0.12975088  0.41783081     1.58150
O1300       O  0.69554487  0.00313915  0.39041784    -0.88690
O1301       O  0.70691236  0.03933759  0.45638851    -0.76020
C1302       C  0.80122386  0.09154152  0.26369799     0.92120
O1303       O  0.70973985  0.12489215  0.37634281    -0.75840
O1304       O  0.81761287  0.11748695  0.28287262    -0.83340
Mg1305     Mg  0.68488454  0.09318012  0.42454357     1.57960
C1306       C  0.70376065  0.46449670  0.30474084     0.92040
O1307       O  0.65937707  0.06040833  0.47268207    -0.81610
H1308       H  0.71485712  0.48309325  0.42198763    -0.06950
C1309       C  0.71759712  0.05991935  0.30496619     0.86980
O1310       O  0.79406983  0.09318647  0.40974354    -0.76120
O1311       O  0.66669701  0.04812208  0.39397306    -0.88880
O1312       O  0.70060035  0.46568312  0.33586539    -0.81690
C1313       C  0.61079245  0.44124371  0.38886352     0.92160
C1314       C  0.63925099  0.02856738  0.47337300     0.92010
Mg1315     Mg  0.76087218  0.03239390  0.32656776     1.57950
O1316       O  0.78107937  0.06283832  0.27676652    -0.81610
O1317       O  0.74260326  0.00311791  0.37880836    -0.75850
O1318       O  0.61338200  0.46845688  0.39882938    -0.81690
O1319       O  0.70975762  0.14212023  0.45650835    -0.83400
O1320       O  0.84321255  0.15096106  0.37561743    -0.81720
C1321       C  0.71745009  0.99607779  0.39842121     0.86440
O1322       O  0.78614719  0.07670202  0.35654805    -0.88870
O1323       O  0.71771209  0.03958128  0.32555683    -0.88970
O1324       O  0.74212583  0.09027497  0.30301355    -0.76030
Mg1325     Mg  0.66078661  0.00652231  0.42310974     1.57970
O1326       O  0.62989903  0.44193118  0.36502375    -0.83400
H1327       H  0.74804831  0.08027855  0.47515091    -0.07130
O1328       O  0.75529177  0.12080406  0.36999648    -0.88670
H1329       H  0.74374805  0.14726810  0.33800897    -0.06950
H1330       H  0.80837049  0.06121657  0.38970290    -0.07130
C1331       C  0.73676499  0.13163834  0.36037284     0.86420
C1332       C  0.72855796  0.07027938  0.45626884     0.87010
C1333       C  0.79664692  0.07629674  0.38525399     0.87050
H1334       H  0.69670284  0.05166510  0.28785201    -0.07110
O1335       O  0.64268281  0.02008697  0.34872189    -0.76130
Mg1336     Mg  0.79181064  0.12119055  0.33459191     1.58000
H1337       H  0.63133807  0.05373974  0.37019192    -0.07120
C1338       C  0.73769059  0.16852169  0.44903655     0.92040
O1339       O  0.81518412  0.17255120  0.39651053    -0.83360
C1340       C  0.84027903  0.16906262  0.39907830     0.92100
O1341       O  0.62231239  0.01411544  0.44834194    -0.83350
Mg1342     Mg  0.67289768  0.49216931  0.34283316     1.58180
O1343       O  0.75619052  0.16839757  0.42531147    -0.81680
O1344       O  0.73173402  0.48525080  0.29146104    -0.83380
O1345       O  0.79341726  0.37459161  0.21695459    -0.88960
C1346       C  0.87835046  0.41246773  0.27788141     0.87070
Mg1347     Mg  0.75148701  0.37181516  0.23928703     1.58150
O1348       O  0.83465655  0.32576660  0.26056515    -0.88690
O1349       O  0.81453692  0.34486565  0.19801546    -0.76020
C1350       C  0.73219682  0.30572216  0.39218782     0.92120
O1351       O  0.81745800  0.43213583  0.27305478    -0.75840
O1352       O  0.71589386  0.31564256  0.37328278    -0.83340
Mg1353     Mg  0.83749637  0.42047785  0.22370538     1.57960
C1354       C  0.83324887  0.27877694  0.34452131     0.92040
O1355       O  0.85683778  0.40523022  0.17367702    -0.81610
H1356       H  0.81573926  0.28592204  0.22960273    -0.06950
C1357       C  0.81600785  0.35973968  0.34844288     0.86980
O1358       O  0.73243580  0.31415337  0.24801927    -0.76120
O1359       O  0.85706118  0.39674239  0.25615906    -0.88880
O1360       O  0.83626899  0.28469872  0.31356036    -0.81690
C1361       C  0.92165153  0.35677428  0.25410273     0.92160
C1362       C  0.88168698  0.39990563  0.17491575     0.92010
Mg1363     Mg  0.77327887  0.28878089  0.32741914     1.57950
O1364       O  0.75315457  0.29796205  0.37894842    -0.81610
O1365       O  0.78988420  0.27789385  0.27419721    -0.75850
O1366       O  0.91558115  0.38025810  0.24940586    -0.81690
O1367       O  0.81149824  0.44310952  0.19395343    -0.83400
O1368       O  0.68722540  0.32265514  0.28193240    -0.81720
C1369       C  0.81359434  0.29635258  0.25341807     0.86440
O1370       O  0.74600430  0.30711471  0.29933174    -0.88870
O1371       O  0.81580210  0.33908525  0.32788518    -0.88970
O1372       O  0.79114042  0.36520509  0.35114093    -0.76030
Mg1373     Mg  0.86552584  0.36436683  0.22652383     1.57970
O1374       O  0.90438329  0.33488536  0.27654091    -0.83400
H1375       H  0.76996189  0.33910718  0.18196264    -0.07130
O1376       O  0.77504494  0.38195823  0.28427774    -0.88670
H1377       H  0.78720386  0.42130566  0.31476001    -0.06950
H1378       H  0.72210499  0.26876538  0.26715500    -0.07130
C1379       C  0.79290657  0.41196272  0.29197923     0.86420
C1380       C  0.79146728  0.35234508  0.19824662     0.87010
C1381       C  0.73324089  0.29547596  0.27152098     0.87050
H1382       H  0.83734470  0.37291486  0.36493354    -0.07110
O1383       O  0.88607310  0.39678222  0.29917461    -0.76130
Mg1384     Mg  0.74021039  0.34567133  0.32148389     1.58000
H1385       H  0.89112491  0.43962602  0.27816602    -0.07120
C1386       C  0.78528807  0.44414289  0.20372930     0.92040
O1387       O  0.71271697  0.37407511  0.26865195    -0.83360
C1388       C  0.68950147  0.34555664  0.26157109     0.92100
O1389       O  0.90111547  0.41191385  0.19887829    -0.83350
Mg1390     Mg  0.86085679  0.33895696  0.30570661     1.58180
O1391       O  0.76715681  0.42662797  0.22830267    -0.81680
O1392       O  0.80573528  0.27203839  0.35907717    -0.83380
O1393       O  0.65528644  0.22778222  0.60286851    -0.88960
C1394       C  0.61979826  0.14554596  0.54108357     0.87070
Mg1395     Mg  0.66033760  0.27289596  0.58590866     1.58150
O1396       O  0.70755060  0.19576763  0.55838657    -0.88690
O1397       O  0.68256936  0.20679615  0.62741834    -0.76020
C1398       C  0.72694166  0.30040779  0.43016331     0.92120
O1399       O  0.60164895  0.21047168  0.54446287    -0.75840
O1400       O  0.71735245  0.31670085  0.44987621    -0.83340
Mg1401     Mg  0.60755989  0.18557446  0.59279559     1.57960
C1402       C  0.75037303  0.19910804  0.46942045     0.92040
O1403       O  0.61266389  0.15970610  0.64101658    -0.81610
H1404       H  0.74819636  0.21393120  0.58799589    -0.06950
C1405       C  0.67258741  0.21592017  0.47204319     0.86980
O1406       O  0.71795967  0.29300521  0.57662717    -0.76120
O1407       O  0.63401849  0.16654674  0.56340931    -0.88880
O1408       O  0.74797197  0.19645253  0.50082851    -0.81690
C1409       C  0.68636543  0.11312684  0.56176957     0.92160
C1410       C  0.62403127  0.13934533  0.64364015     0.92010
Mg1411     Mg  0.74366941  0.25828209  0.49245291     1.57950
O1412       O  0.73434964  0.27920848  0.44258956    -0.81610
O1413       O  0.75543210  0.24031715  0.54420783    -0.75850
O1414       O  0.66065246  0.11492437  0.56918849    -0.81690
O1415       O  0.58394469  0.21073044  0.62431572    -0.83400
O1416       O  0.70934689  0.34314127  0.54229685    -0.81720
C1417       C  0.73725127  0.21649857  0.56490890     0.86440
O1418       O  0.72602599  0.28494763  0.52308423    -0.88870
O1419       O  0.69281486  0.21560540  0.49249927    -0.88970
O1420       O  0.66768203  0.24108345  0.47003489    -0.76030
Mg1421     Mg  0.67005862  0.16166236  0.59291559     1.57970
O1422       O  0.70378900  0.12973437  0.53630281    -0.83400
H1423       H  0.68147678  0.24786715  0.64505115    -0.07130
O1424       O  0.65131102  0.25552404  0.53773868    -0.88670
H1425       H  0.61325434  0.24394955  0.50601001    -0.06950
H1426       H  0.76393768  0.30653175  0.55595446    -0.07130
C1427       C  0.62191804  0.23716076  0.52835970     0.86420
C1428       C  0.67329686  0.22847487  0.62602076     0.87010
C1429       C  0.73715171  0.29527434  0.55178968     0.87050
H1430       H  0.65950102  0.19497081  0.45501263    -0.07110
O1431       O  0.63714526  0.14105192  0.51867301    -0.76130
Mg1432     Mg  0.68736223  0.29119964  0.50166096     1.58000
H1433       H  0.59262102  0.13045604  0.54106565    -0.07120
C1434       C  0.58618458  0.23899129  0.61764415     0.92040
O1435       O  0.66050292  0.31545774  0.56513526    -0.83360
C1436       C  0.68891139  0.34077870  0.56640888     0.92100
O1437       O  0.62475331  0.12330557  0.61884579    -0.83350
Mg1438     Mg  0.69493687  0.17070414  0.51134677     1.58180
O1439       O  0.60566218  0.25802558  0.59476876    -0.81680
O1440       O  0.75940410  0.22761030  0.45671335    -0.83380
O1441       O  0.59050726  0.24110563  0.87528258    -0.88960
C1442       C  0.53526207  0.15250526  0.92671059     0.87070
Mg1443     Mg  0.62823028  0.28079820  0.90269082     1.58150
O1444       O  0.00313301  0.21001216  0.92835104    -0.88690
O1445       O  0.54359939  0.23540037  0.85740586    -0.76020
C1446       C  0.58893987  0.30007505  0.06075625     0.92120
O1447       O  0.61532768  0.21186411  0.93428069    -0.75840
O1448       O  0.61441266  0.31673809  0.04057452    -0.83340
Mg1449     Mg  0.58912269  0.19432934  0.88243635     1.57960
C1450       C  0.96392959  0.19914666  0.02146047     0.92040
O1451       O  0.55848056  0.16564795  0.83198087    -0.81610
H1452       H  0.97565628  0.22748824  0.90632092    -0.06950
C1453       C  0.55606311  0.21704270  0.01320289     0.86980
O1454       O  0.58971917  0.30007595  0.91442996    -0.76120
O1455       O  0.54194407  0.17587101  0.90714345    -0.88880
O1456       O  0.96214442  0.19765210  0.98990456    -0.81690
C1457       C  0.93836708  0.12322032  0.91513542     0.92160
C1458       C  0.52645139  0.15173931  0.82691281     0.92010
Mg1459     Mg  0.52872316  0.26171894  0.99968714     1.57950
O1460       O  0.56018793  0.27897904  0.04880521    -0.81610
O1461       O  0.49628695  0.24954908  0.95123283    -0.75850
O1462       O  0.96033880  0.13939359  0.89314235    -0.81690
O1463       O  0.64283503  0.22020681  0.85879795    -0.83400
O1464       O  0.64630605  0.34570323  0.94916582    -0.81720
C1465       C  0.99115548  0.22891638  0.92738922     0.86440
O1466       O  0.57240842  0.29033423  0.96799814    -0.88870
O1467       O  0.53689074  0.21916976  0.99274831    -0.88970
O1468       O  0.58612380  0.24142423  0.01707711    -0.76030
Mg1469     Mg  0.50612333  0.18730024  0.88383047     1.57970
O1470       O  0.94285879  0.13247747  0.94606314    -0.83400
H1471       H  0.58912232  0.27028799  0.83871922    -0.07130
O1472       O  0.61263742  0.25675213  0.94746757    -0.88670
H1473       H  0.63423423  0.23812904  0.97768803    -0.06950
H1474       H  0.55596656  0.31195410  0.93507109    -0.07130
C1475       C  0.62118101  0.23582117  0.95436614     0.86420
C1476       C  0.57520138  0.24927053  0.85569506     0.87010
C1477       C  0.57181984  0.30103257  0.93923919     0.87050
H1478       H  0.54693173  0.19476049  0.02871087    -0.07110
O1479       O  0.51887019  0.14901093  0.95367505    -0.76130
Mg1480     Mg  0.61630286  0.29230412  0.98704630     1.58000
H1481       H  0.54496025  0.13573212  0.92149933    -0.07120
C1482       C  0.66902190  0.24615650  0.87053333     0.92040
O1483       O  0.66858139  0.31745221  0.93255389    -0.83360
C1484       C  0.66569178  0.34256349  0.92761687     0.92100
O1485       O  0.50813721  0.15940580  0.84388724    -0.83350
Mg1486     Mg  0.99130921  0.17600325  0.97074193     1.58180
O1487       O  0.66698916  0.26443371  0.89330747    -0.81680
O1488       O  0.98346952  0.22724615  0.03496115    -0.83380
O1489       O  0.59544392  0.37507083  0.27264726    -0.88960
C1490       C  0.54866463  0.41287555  0.21105051     0.87070
Mg1491     Mg  0.63473167  0.37212115  0.25086500     1.58150
O1492       O  0.00587870  0.32623318  0.22909216    -0.88690
O1493       O  0.54462964  0.34546920  0.29173502    -0.76020
C1494       C  0.58909873  0.30536705  0.09869046     0.92120
O1495       O  0.62906337  0.43222364  0.21603853    -0.75840
O1496       O  0.61527175  0.31535099  0.11757759    -0.83340
Mg1497     Mg  0.59732539  0.42098492  0.26540764     1.57960
C1498       C  0.96060520  0.27904146  0.14543668     0.92040
O1499       O  0.56258448  0.40600355  0.31549697    -0.81610
H1500       H  0.98473712  0.28648625  0.26040841    -0.06950
C1501       C  0.55901207  0.35978551  0.14118121     0.86980
O1502       O  0.59625093  0.31442049  0.24270505    -0.76120
O1503       O  0.55411498  0.39724574  0.23308914    -0.88880
O1504       O  0.96349820  0.28496998  0.17634351    -0.81690
C1505       C  0.94965705  0.35691761  0.23467991     0.92160
C1506       C  0.53235478  0.40054876  0.31432475     0.92010
Mg1507     Mg  0.53056190  0.28893142  0.16300448     1.57950
O1508       O  0.56039062  0.29778922  0.11187806    -0.81610
O1509       O  0.50277304  0.27826479  0.21609548    -0.75850
O1510       O  0.97909781  0.38052830  0.23929699    -0.81690
O1511       O  0.64593461  0.44368724  0.29511155    -0.83400
O1512       O  0.65023722  0.32266291  0.20910606    -0.81720
C1513       C  0.99744912  0.29682519  0.23657145     0.86440
O1514       O  0.57599118  0.30714887  0.19126123    -0.88870
O1515       O  0.53848703  0.33931441  0.16192431    -0.88970
O1516       O  0.58929294  0.36508367  0.13862532    -0.76030
Mg1517     Mg  0.51318630  0.36479835  0.26275412     1.57970
O1518       O  0.94527925  0.33509309  0.21238696    -0.83400
H1519       H  0.58342774  0.33983267  0.30813884    -0.07130
O1520       O  0.62163295  0.38204255  0.20554338    -0.88670
H1521       H  0.64871397  0.42126113  0.17465531    -0.06950
H1522       H  0.56135634  0.26895247  0.22391774    -0.07130
C1523       C  0.63363333  0.41199789  0.19747292     0.86420
C1524       C  0.57516307  0.35295732  0.29158939     0.87010
C1525       C  0.57693882  0.29563889  0.21928540     0.87050
H1526       H  0.55096003  0.37291826  0.12439550    -0.07110
O1527       O  0.52549815  0.39708883  0.18966901    -0.76130
Mg1528     Mg  0.62049308  0.34558762  0.16893712     1.58000
H1529       H  0.56295436  0.44003636  0.21053875    -0.07120
C1530       C  0.67316394  0.44462440  0.28543222     0.92040
O1531       O  0.67593610  0.37406625  0.22217354    -0.83360
C1532       C  0.67071223  0.34555426  0.22941087     0.92100
O1533       O  0.52471523  0.41219555  0.29012131    -0.83350
Mg1534     Mg  0.99310029  0.33923833  0.18363438     1.58180
O1535       O  0.67377589  0.42700394  0.26107233    -0.81680
O1536       O  0.98151005  0.27242544  0.13096075    -0.83380
O1537       O  0.78952633  0.44347790  0.94724777    -0.88960
C1538       C  0.87676584  0.49785737  0.89260764     0.87070
Mg1539     Mg  0.74963414  0.40410974  0.92199457     1.58150
O1540       O  0.81888545  0.02916371  0.89326192    -0.88690
O1541       O  0.79450961  0.99056389  0.96394868    -0.76020
C1542       C  0.72788677  0.44043127  0.76414216     0.92120
O1543       O  0.81810139  0.41668426  0.88746326    -0.75840
O1544       O  0.71138571  0.41494315  0.78414205    -0.83340
Mg1545     Mg  0.83686215  0.44597700  0.93752623     1.57960
C1546       C  0.82986943  0.06774576  0.80263149     0.92040
O1547       O  0.86674192  0.47829321  0.98480586    -0.81610
H1548       H  0.80082211  0.05591728  0.91642527    -0.06950
C1549       C  0.81150598  0.47462945  0.80977061     0.86980
O1550       O  0.72866712  0.44097668  0.90954111    -0.76120
O1551       O  0.85294110  0.49137146  0.91180255    -0.88880
O1552       O  0.83012655  0.06919588  0.83407476    -0.81690
C1553       C  0.90730526  0.09341498  0.90374180     0.92160
C1554       C  0.88021504  0.01010011  0.98976875     0.92010
Mg1555     Mg  0.76670023  0.50161017  0.82401575     1.57950
O1556       O  0.74902204  0.46917803  0.77604676    -0.81610
O1557       O  0.77808854  0.03445732  0.87205559    -0.75850
O1558       O  0.89020690  0.07203082  0.92566752    -0.81690
O1559       O  0.81490123  0.39525165  0.96394931    -0.83400
O1560       O  0.68351770  0.38277212  0.87615202    -0.81720
C1561       C  0.79938159  0.04041455  0.89516826     0.86440
O1562       O  0.73815900  0.45789266  0.85603496    -0.88870
O1563       O  0.80936551  0.49403922  0.83020103    -0.88970
O1564       O  0.78730569  0.44439868  0.80645420    -0.76030
Mg1565     Mg  0.84212731  0.02751806  0.93634330     1.57970
O1566       O  0.89773333  0.08926957  0.87304099    -0.83400
H1567       H  0.76047674  0.44560348  0.98408115    -0.07130
O1568       O  0.77234402  0.41801624  0.87606936    -0.88670
H1569       H  0.78988442  0.39501156  0.84581029    -0.06950
H1570       H  0.71544449  0.47350443  0.88916374    -0.07130
C1571       C  0.79313333  0.40933594  0.86858919     0.86420
C1572       C  0.78124122  0.45916461  0.96656802     0.87010
C1573       C  0.72717129  0.45834555  0.88485302     0.87050
H1574       H  0.83367438  0.48367945  0.79379994    -0.07110
O1575       O  0.88062883  0.01380385  0.86555117    -0.76130
Mg1576     Mg  0.73653104  0.41380568  0.83716022     1.58000
H1577       H  0.89350043  0.48826439  0.89818081    -0.07120
C1578       C  0.78876634  0.36780253  0.95521392     0.92040
O1579       O  0.71311854  0.36228331  0.89346664    -0.83360
C1580       C  0.68728674  0.36421538  0.89798118     0.92100
O1581       O  0.87111517  0.02791816  0.97471431    -0.83350
Mg1582     Mg  0.85277328  0.04050021  0.85038295     1.58180
O1583       O  0.76772053  0.36688986  0.93405358    -0.81680
O1584       O  0.80256499  0.04698981  0.78834966    -0.83380
O1585       O  0.66874753  0.44196954  0.53977899    -0.88960
C1586       C  0.63318298  0.49431364  0.59293748     0.87070
Mg1587     Mg  0.66917731  0.40413705  0.56767672     1.58150
O1588       O  0.72247753  0.02858642  0.59641940    -0.88690
O1589       O  0.71305426  0.98902494  0.52671335    -0.76020
C1590       C  0.72273977  0.44093162  0.72647987     0.92120
O1591       O  0.61114075  0.41437902  0.59887712    -0.75840
O1592       O  0.71478426  0.41602433  0.70610405    -0.83340
Mg1593     Mg  0.62346803  0.44409726  0.54890033     1.57960
C1594       C  0.74880174  0.07153329  0.68622927     0.92040
O1595       O  0.62632071  0.47692190  0.50201270    -0.81610
H1596       H  0.76766147  0.05771493  0.57467023    -0.06950
C1597       C  0.67373174  0.47514912  0.67894222     0.86980
O1598       O  0.72646544  0.44223222  0.58170788    -0.76120
O1599       O  0.65198657  0.48863913  0.57507805    -0.88880
O1600       O  0.74817383  0.07188283  0.65465649    -0.81690
C1601       C  0.69256744  0.08816346  0.57881124     0.92160
C1602       C  0.64575240  0.00854848  0.49705085     0.92010
Mg1603     Mg  0.74601141  0.50349797  0.66691143     1.57950
O1604       O  0.73001839  0.46993393  0.71504562    -0.81610
O1605       O  0.76878468  0.03692410  0.61963927    -0.75850
O1606       O  0.69292207  0.06677361  0.55992426    -0.81690
O1607       O  0.59560033  0.39385529  0.52269803    -0.83400
O1608       O  0.71305676  0.38392641  0.61519463    -0.81720
C1609       C  0.75346339  0.04168665  0.59566906     0.86440
O1610       O  0.73234584  0.45971765  0.63488697    -0.88870
O1611       O  0.69590341  0.49536773  0.65939068    -0.88970
O1612       O  0.66812965  0.44499874  0.68200372    -0.76030
Mg1613     Mg  0.69971076  0.02496556  0.55168874     1.57970
O1614       O  0.69684754  0.08705558  0.61058048    -0.83400
H1615       H  0.70227392  0.44467638  0.50542295    -0.07130
O1616       O  0.65906103  0.41895346  0.61237373    -0.88670
H1617       H  0.61791690  0.39412863  0.64163895    -0.06950
H1618       H  0.77143461  0.47587757  0.60256526    -0.07130
C1619       C  0.62910679  0.40865128  0.61890791     0.86420
C1620       C  0.69421228  0.45797605  0.52227411     0.87010
C1621       C  0.74454546  0.46022409  0.60644851     0.87050
H1622       H  0.65964038  0.48341835  0.69442180    -0.07110
O1623       O  0.64346956  0.01052258  0.62004149    -0.76130
Mg1624     Mg  0.68979014  0.41504133  0.65257308     1.58000
H1625       H  0.60696282  0.48350854  0.58627738    -0.07120
C1626       C  0.59438414  0.36662918  0.53232117     0.92040
O1627       O  0.66303671  0.36365910  0.59865228    -0.83360
C1628       C  0.69045095  0.36492342  0.59400351     0.92100
O1629       O  0.67302974  0.02518878  0.51168489    -0.83350
Mg1630     Mg  0.69707340  0.04024076  0.63681837     1.58180
O1631       O  0.61448249  0.36610170  0.55385925    -0.81680
O1632       O  0.75411796  0.04984186  0.70086833    -0.83380
O1633       O  0.86141125  0.28458769  0.12157370    -0.88960
C1634       C  0.89590339  0.37248389  0.06695451     0.87070
Mg1635     Mg  0.86247954  0.24819434  0.09057883     1.58150
O1636       O  0.80686138  0.32365628  0.06296624    -0.88690
O1637       O  0.81268224  0.28239110  0.12045628    -0.76020
C1638       C  0.80767488  0.23460344  0.93169435     0.92120
O1639       O  0.92070732  0.31522512  0.06053763    -0.75840
O1640       O  0.81637197  0.21779757  0.95138719    -0.83340
Mg1641     Mg  0.90675827  0.33279255  0.10932558     1.57960
C1642       C  0.78056457  0.33712329  0.97350133     0.92040
O1643       O  0.90714461  0.36875458  0.15198738    -0.81610
H1644       H  0.76113874  0.30620593  0.08405984    -0.06950
C1645       C  0.85682761  0.31729123  0.98025724     0.86980
O1646       O  0.80478373  0.22863764  0.07575661    -0.76120
O1647       O  0.87668577  0.34656257  0.08251486    -0.88880
O1648       O  0.78203502  0.33929172  0.00503089    -0.81690
C1649       C  0.83914076  0.40916392  0.08558626     0.92160
C1650       C  0.88088904  0.37079704  0.15816052     0.92010
Mg1651     Mg  0.78442440  0.27275143  0.99264538     1.57950
O1652       O  0.80012756  0.25590483  0.94391626    -0.81610
O1653       O  0.76169073  0.28346610  0.04007156    -0.75850
O1654       O  0.84100386  0.38874837  0.10550738    -0.81690
O1655       O  0.93568801  0.31232675  0.13643537    -0.83400
O1656       O  0.81931407  0.18675376  0.04139668    -0.81720
C1657       C  0.77603910  0.30468661  0.06346690     0.86440
O1658       O  0.79928336  0.24308381  0.02380085    -0.88870
O1659       O  0.83436461  0.31511372  0.99970011    -0.88970
O1660       O  0.86287662  0.29299342  0.97698364    -0.76030
Mg1661     Mg  0.82949236  0.33542393  0.10819771     1.57970
O1662       O  0.83287867  0.40255736  0.05401531    -0.83400
H1663       H  0.82095087  0.24906429  0.14571633    -0.07130
O1664       O  0.87211647  0.27436292  0.04643476    -0.88670
H1665       H  0.91311637  0.28829973  0.01746269    -0.06950
H1666       H  0.75979860  0.21793300  0.05515879    -0.07130
C1667       C  0.90224692  0.29247320  0.04007839     0.86420
C1668       C  0.83191721  0.27233408  0.13154797     0.87010
C1669       C  0.78678957  0.22973817  0.05154405     0.87050
H1670       H  0.87088608  0.33971657  0.96508084    -0.07110
O1671       O  0.88622611  0.38114518  0.04120701    -0.76130
Mg1672     Mg  0.84172333  0.24111088  0.00521720     1.58000
H1673       H  0.92193748  0.38708765  0.07450141    -0.07120
C1674       C  0.93721575  0.28621180  0.12756448     0.92040
O1675       O  0.86996544  0.21612863  0.05648121    -0.83360
C1676       C  0.84247324  0.19041727  0.06186445     0.92100
O1677       O  0.85301853  0.34493097  0.15492062    -0.83350
Mg1678     Mg  0.83312456  0.35844411  0.02359925     1.58180
O1679       O  0.91728549  0.26505372  0.10615284    -0.81680
O1680       O  0.77489101  0.30978439  0.95936063    -0.83380
O1681       O  0.73848359  0.16984552  0.71122200    -0.88960
C1682       C  0.65201619  0.13921672  0.76767957     0.87070
Mg1683     Mg  0.77893333  0.17105645  0.73569686     1.58150
O1684       O  0.71051754  0.22798878  0.76478196    -0.88690
O1685       O  0.73255262  0.21129315  0.69424040    -0.76020
C1686       C  0.80224874  0.22943323  0.89398617     0.92120
O1687       O  0.71130431  0.11536679  0.77164814    -0.75840
O1688       O  0.81837059  0.22005444  0.87375485    -0.83340
Mg1689     Mg  0.69170872  0.12516795  0.72196659     1.57960
C1690       C  0.70195786  0.25834329  0.85423472     0.92040
O1691       O  0.66194295  0.12758947  0.67481484    -0.81610
H1692       H  0.73038333  0.27211112  0.74033125    -0.06950
C1693       C  0.71802129  0.18143003  0.84805186     0.86980
O1694       O  0.79991083  0.22861945  0.74813848    -0.76120
O1695       O  0.67579360  0.15531151  0.74805755    -0.88880
O1696       O  0.70285216  0.25975647  0.82287012    -0.81690
C1697       C  0.62159681  0.20563066  0.75707796     0.92160
C1698       C  0.64801643  0.14556818  0.66980181     0.92010
Mg1699     Mg  0.76385149  0.25266793  0.83390940     1.57950
O1700       O  0.78129360  0.23759362  0.88234155    -0.81610
O1701       O  0.75293670  0.27353941  0.78489183    -0.75850
O1702       O  0.63728352  0.19825775  0.73577624    -0.81690
O1703       O  0.71366629  0.09532324  0.69544729    -0.83400
O1704       O  0.84620148  0.21536088  0.78315372    -0.81720
C1705       C  0.73120233  0.25829594  0.76203937     0.86440
O1706       O  0.79187698  0.23663781  0.80204174    -0.88870
O1707       O  0.72053107  0.20308010  0.82768960    -0.88970
O1708       O  0.74195779  0.17486477  0.85144338    -0.76030
Mg1709     Mg  0.68558627  0.20155072  0.72300691     1.57970
O1710       O  0.63292410  0.21407427  0.78692936    -0.83400
H1711       H  0.76641482  0.20009804  0.67352824    -0.07130
O1712       O  0.75706618  0.16252159  0.78215609    -0.88670
H1713       H  0.74041350  0.12252975  0.81268411    -0.06950
H1714       H  0.81407857  0.27449125  0.76868511    -0.07130
C1715       C  0.73661397  0.13322012  0.78998289     0.86420
C1716       C  0.74606493  0.19327171  0.69154235     0.87010
C1717       C  0.80228816  0.24770729  0.77304028     0.87050
H1718       H  0.69574717  0.16866556  0.86390193    -0.07110
O1719       O  0.64812382  0.15291081  0.79371340    -0.76130
Mg1720     Mg  0.79287669  0.19403239  0.82107738     1.58000
H1721       H  0.63496572  0.11281137  0.76312895    -0.07120
C1722       C  0.74031151  0.09455944  0.70382887     0.92040
O1723       O  0.81547088  0.16657679  0.76337483    -0.83360
C1724       C  0.84197785  0.19377010  0.76021895     0.92100
O1725       O  0.65618533  0.17214629  0.68521408    -0.83350
Mg1726     Mg  0.67760938  0.20790660  0.80817954     1.58180
O1727       O  0.76185744  0.11587731  0.72382424    -0.81680
O1728       O  0.72848977  0.26378571  0.86946039    -0.83380
O1729       O  0.94408465  0.65735470  0.77067539    -0.88960
C1730       C  0.98104639  0.61911783  0.70240035     0.87070
Mg1731     Mg  0.90487672  0.66400023  0.75393007     1.58150
O1732       O  0.51594279  0.70783505  0.72079081    -0.88690
O1733       O  0.49492934  0.68394921  0.79006218    -0.76020
C1734       C  0.94187886  0.72897682  0.59665577     0.92120
O1735       O  0.90073200  0.60208531  0.71307160    -0.75840
O1736       O  0.91589981  0.71888400  0.61647051    -0.83340
Mg1737     Mg  0.93580425  0.60891297  0.75771790     1.57960
C1738       C  0.56780562  0.75108849  0.63822306     0.92040
O1739       O  0.97522780  0.61597399  0.80012963    -0.81610
H1740       H  0.54320770  0.74568896  0.75281393    -0.06950
C1741       C  0.97189994  0.67402040  0.63673198     0.86980
O1742       O  0.94248452  0.72086125  0.74302737    -0.76120
O1743       O  0.97558058  0.63455826  0.72452177    -0.88880
O1744       O  0.56695393  0.74695065  0.66965622    -0.81690
C1745       C  0.58985279  0.70332550  0.74532859     0.92160
C1746       C  0.50760109  0.62841041  0.79953953     0.92010
Mg1747     Mg  0.00116912  0.74614187  0.65807355     1.57950
O1748       O  0.97068218  0.73661970  0.60874698    -0.81610
O1749       O  0.53039780  0.75935688  0.70883829    -0.75850
O1750       O  0.57076412  0.70723910  0.76598103    -0.81690
O1751       O  0.88788520  0.58488684  0.79181426    -0.83400
O1752       O  0.88208806  0.71190898  0.70855421    -0.81720
C1753       C  0.53023783  0.73776373  0.72900506     0.86440
O1754       O  0.95672024  0.72832968  0.68883046    -0.88870
O1755       O  0.99353851  0.69524966  0.65567806    -0.88970
O1756       O  0.94164300  0.66884577  0.63641061    -0.76030
Mg1757     Mg  0.52035478  0.67128187  0.74605752     1.57970
O1758       O  0.58074816  0.69535772  0.71421359    -0.83400
H1759       H  0.95485056  0.68259686  0.81446565    -0.07130
O1760       O  0.91129342  0.65358374  0.70505195    -0.88670
H1761       H  0.87922441  0.61542157  0.67591029    -0.06950
H1762       H  0.97370385  0.76646705  0.72168752    -0.07130
C1763       C  0.89649737  0.62358939  0.69683682     0.86420
C1764       C  0.96392552  0.67497377  0.79273497     0.87010
C1765       C  0.95821503  0.73969920  0.71770747     0.87050
H1766       H  0.97892964  0.66011919  0.61956564    -0.07110
O1767       O  0.50502696  0.63545983  0.68193353    -0.76130
Mg1768     Mg  0.91172550  0.68928561  0.66827511     1.58000
H1769       H  0.96636250  0.59200146  0.70118988    -0.07120
C1770       C  0.86203891  0.58766889  0.78469185     0.92040
O1771       O  0.86314154  0.66437318  0.73310178    -0.83360
C1772       C  0.86539605  0.69239698  0.73358123     0.92100
O1773       O  0.52287133  0.63043479  0.77234808    -0.83350
Mg1774     Mg  0.53615499  0.69332467  0.67991169     1.58180
O1775       O  0.86406373  0.61014945  0.76490077    -0.81680
O1776       O  0.54911277  0.76121443  0.62528559    -0.83380
O1777       O  0.93784676  0.78474253  0.36842484    -0.88960
C1778       C  0.99115733  0.87226897  0.42309604     0.87070
Mg1779     Mg  0.90050540  0.74810087  0.39948329     1.58150
O1780       O  0.53125375  0.82318529  0.42608091    -0.88690
O1781       O  0.48443230  0.78266531  0.36867340    -0.76020
C1782       C  0.94203884  0.73449023  0.55883395     0.92120
O1783       O  0.90901397  0.81491705  0.42948891    -0.75840
O1784       O  0.91659391  0.71779033  0.53911626    -0.83340
Mg1785     Mg  0.94054896  0.83287124  0.38063826     1.57960
C1786       C  0.57184019  0.83573664  0.51472706     0.92040
O1787       O  0.97598242  0.86940106  0.33797583    -0.81610
H1788       H  0.55851678  0.80487487  0.40441985    -0.06950
C1789       C  0.97546820  0.81675604  0.50932606     0.86980
O1790       O  0.93872493  0.72861601  0.41425555    -0.76120
O1791       O  0.98438906  0.84650819  0.40731317    -0.88880
O1792       O  0.57186842  0.83770003  0.48321685    -0.81690
C1793       C  0.58445936  0.90919650  0.40359764     0.92160
C1794       C  0.50422403  0.87146646  0.33145794     0.92010
Mg1795     Mg  0.00308975  0.77195070  0.49699621     1.57950
O1796       O  0.97098684  0.75560619  0.54651811    -0.81610
O1797       O  0.53572545  0.78242539  0.44881766    -0.75850
O1798       O  0.56201012  0.88907425  0.38378421    -0.81690
O1799       O  0.89128664  0.81237063  0.35355813    -0.83400
O1800       O  0.88233988  0.68636246  0.44861964    -0.81720
C1801       C  0.54255967  0.80371395  0.42532425     0.86440
O1802       O  0.95842700  0.74250995  0.46628606    -0.88870
O1803       O  0.99569136  0.81445553  0.48989491    -0.88970
O1804       O  0.94508422  0.79258759  0.51273699    -0.76030
Mg1805     Mg  0.52039707  0.83562269  0.38110018     1.57970
O1806       O  0.58441338  0.90206810  0.43501605    -0.83400
H1807       H  0.94263645  0.74936093  0.34393951    -0.07130
O1808       O  0.91690821  0.77405017  0.44358097    -0.88670
H1809       H  0.88970589  0.78774296  0.47259088    -0.06950
H1810       H  0.97289217  0.71766243  0.43477277    -0.07130
C1811       C  0.90478477  0.79207183  0.44995157     0.86420
C1812       C  0.95501597  0.77256222  0.35806714     0.87010
C1813       C  0.95767594  0.72943254  0.43847219     0.87050
H1814       H  0.98391670  0.83920068  0.52436191    -0.07110
O1815       O  0.50972243  0.88071093  0.44862357    -0.76130
Mg1816     Mg  0.91419556  0.74071304  0.48488454     1.58000
H1817       H  0.97964725  0.88694729  0.41591337    -0.07120
C1818       C  0.86375453  0.78609787  0.36242259     0.92040
O1819       O  0.86097206  0.71573851  0.43365666    -0.83360
C1820       C  0.86294881  0.69016311  0.42806687     0.92100
O1821       O  0.50625016  0.84557846  0.33461313    -0.83350
Mg1822     Mg  0.54016288  0.85768375  0.46559939     1.58180
O1823       O  0.86256879  0.76493816  0.38394863    -0.81680
O1824       O  0.55023822  0.80866301  0.52944485    -0.83380
O1825       O  0.87617288  0.58809967  0.05459283    -0.88960
C1826       C  0.90963932  0.54062763  0.11815453     0.87070
Mg1827     Mg  0.87205980  0.62892877  0.07144628     1.58150
O1828       O  0.82235725  0.50351490  0.09849440    -0.88690
O1829       O  0.84814943  0.53922569  0.03129129    -0.76020
C1830       C  0.80506472  0.59150490  0.22560759     0.92120
O1831       O  0.92959655  0.62357743  0.11316764    -0.75840
O1832       O  0.81488528  0.61751935  0.20633917    -0.83340
Mg1833     Mg  0.92345844  0.59257718  0.06475196     1.57960
C1834       C  0.77464810  0.96415721  0.18439279     0.92040
O1835       O  0.91730143  0.56050874  0.01657600    -0.81610
H1836       H  0.78307406  0.98385311  0.06698242    -0.06950
C1837       C  0.85645803  0.55899965  0.18452292     0.86980
O1838       O  0.81408900  0.59285821  0.07936061    -0.76120
O1839       O  0.89632217  0.54729031  0.09478415    -0.88880
O1840       O  0.77911472  0.96555332  0.15325066    -0.81690
C1841       C  0.84459537  0.94100997  0.10035311     0.92160
C1842       C  0.90543827  0.52866172  0.01487530     0.92010
Mg1843     Mg  0.78597146  0.53234642  0.16272093     1.57950
O1844       O  0.79624705  0.56273074  0.21263714    -0.81610
O1845       O  0.77526619  0.50347290  0.11031928    -0.75850
O1846       O  0.86942308  0.96826696  0.09077484    -0.81690
O1847       O  0.94780976  0.64187575  0.03296381    -0.83400
O1848       O  0.82313363  0.65100727  0.11410490    -0.81720
C1849       C  0.79342350  0.49660179  0.09057689     0.86440
O1850       O  0.80518757  0.57672531  0.13280647    -0.88870
O1851       O  0.83614132  0.53908345  0.16373455    -0.88970
O1852       O  0.86252025  0.58941608  0.18662110    -0.76030
Mg1853     Mg  0.86039682  0.50615236  0.06560462     1.57970
O1854       O  0.82585100  0.94150162  0.12394350    -0.83400
H1855       H  0.84899896  0.58096007  0.01294438    -0.07130
O1856       O  0.88002662  0.61969332  0.11942682    -0.88670
H1857       H  0.91778253  0.64552376  0.15165450    -0.06950
H1858       H  0.76767780  0.56153538  0.09957255    -0.07130
C1859       C  0.90926731  0.63021969  0.12916282     0.86420
C1860       C  0.85755960  0.57020725  0.03205229     0.87010
C1861       C  0.79446890  0.57635594  0.10400202     0.87050
H1862       H  0.86875186  0.55032043  0.20166955    -0.07110
O1863       O  0.89145587  0.51927844  0.14051854    -0.76130
Mg1864     Mg  0.84428591  0.62075799  0.15483273     1.58000
H1865       H  0.93677976  0.55238759  0.11915306    -0.07120
C1866       C  0.94605481  0.66800013  0.04103662     0.92040
O1867       O  0.87242062  0.67179528  0.09238141    -0.83360
C1868       C  0.84400353  0.66880076  0.09034387     0.92100
O1869       O  0.90590365  0.51284672  0.03989866    -0.83350
Mg1870     Mg  0.83333652  0.99173036  0.14621667     1.58180
O1871       O  0.92723580  0.66720758  0.06485164    -0.81680
O1872       O  0.76751554  0.98492555  0.19771108    -0.83380
O1873       O  0.72779072  0.58898447  0.43457835    -0.88960
C1874       C  0.64645623  0.54165981  0.37095199     0.87070
Mg1875     Mg  0.77268175  0.62975100  0.41783076     1.58150
O1876       O  0.69554485  0.50313921  0.39041784    -0.88690
O1877       O  0.70691252  0.53933774  0.45638849    -0.76020
C1878       C  0.80122378  0.59154147  0.26369794     0.92120
O1879       O  0.70973995  0.62489229  0.37634285    -0.75840
O1880       O  0.81761282  0.61748690  0.28287257    -0.83340
Mg1881     Mg  0.68488469  0.59318030  0.42454365     1.57960
C1882       C  0.70376079  0.96449668  0.30474089     0.92040
O1883       O  0.65937728  0.56040855  0.47268218    -0.81610
H1884       H  0.71485718  0.98309327  0.42198768    -0.06950
C1885       C  0.71759708  0.55991940  0.30496618     0.86980
O1886       O  0.79406987  0.59318651  0.40974347    -0.76120
O1887       O  0.66669710  0.54812224  0.39397314    -0.88880
O1888       O  0.70060051  0.96568310  0.33586545    -0.81690
C1889       C  0.61079250  0.94124357  0.38886341     0.92160
C1890       C  0.63925118  0.52856760  0.47337311     0.92010
Mg1891     Mg  0.76087209  0.53239389  0.32656771     1.57950
O1892       O  0.78107928  0.56283829  0.27676648    -0.81610
O1893       O  0.74260318  0.50311788  0.37880830    -0.75850
O1894       O  0.61338198  0.96845672  0.39882921    -0.81690
O1895       O  0.70975784  0.64212044  0.45650838    -0.83400
O1896       O  0.84321257  0.65096101  0.37561736    -0.81720
C1897       C  0.71745004  0.49607779  0.39842118     0.86440
O1898       O  0.78614714  0.57670201  0.35654800    -0.88870
O1899       O  0.71771203  0.53958133  0.32555681    -0.88970
O1900       O  0.74212580  0.59027501  0.30301353    -0.76030
Mg1901     Mg  0.66078669  0.50652246  0.42310981     1.57970
O1902       O  0.62989913  0.94193105  0.36502370    -0.83400
H1903       H  0.74804851  0.58027867  0.47515088    -0.07130
O1904       O  0.75529180  0.62080412  0.36999646    -0.88670
H1905       H  0.74374810  0.64726818  0.33800896    -0.06950
H1906       H  0.80837043  0.56121652  0.38970284    -0.07130
C1907       C  0.73676505  0.63163843  0.36037285     0.86420
C1908       C  0.72855813  0.57027953  0.45626884     0.87010
C1909       C  0.79664689  0.57629673  0.38525394     0.87050
H1910       H  0.69670279  0.55166517  0.28785201    -0.07110
O1911       O  0.64268281  0.52008713  0.34872200    -0.76130
Mg1912     Mg  0.79181063  0.62119055  0.33459186     1.58000
H1913       H  0.63133815  0.55373993  0.37019207    -0.07120
C1914       C  0.73769081  0.66852189  0.44903656     0.92040
O1915       O  0.81518422  0.67255127  0.39651032    -0.83360
C1916       C  0.84027908  0.66906263  0.39907818     0.92100
O1917       O  0.62231255  0.51411567  0.44834206    -0.83350
Mg1918     Mg  0.67289776  0.99216922  0.34283313     1.58180
O1919       O  0.75619071  0.66839775  0.42531145    -0.81680
O1920       O  0.73173415  0.98525080  0.29146109    -0.83380
O1921       O  0.79341737  0.87459175  0.21695461    -0.88960
C1922       C  0.87835054  0.91246783  0.27788147     0.87070
Mg1923     Mg  0.75148711  0.87181528  0.23928704     1.58150
O1924       O  0.83465663  0.82576671  0.26056516    -0.88690
O1925       O  0.81453704  0.84486579  0.19801549    -0.76020
C1926       C  0.73219688  0.80572223  0.39218779     0.92120
O1927       O  0.81745809  0.93213593  0.27305484    -0.75840
O1928       O  0.71589392  0.81564263  0.37328275    -0.83340
Mg1929     Mg  0.83749648  0.92047799  0.22370543     1.57960
C1930       C  0.83324891  0.77877695  0.34452128     0.92040
O1931       O  0.85683790  0.90523040  0.17367706    -0.81610
H1932       H  0.81573936  0.78592217  0.22960271    -0.06950
C1933       C  0.81600791  0.85973974  0.34844290     0.86980
O1934       O  0.73243591  0.81415348  0.24801924    -0.76120
O1935       O  0.85706128  0.89674251  0.25615910    -0.88880
O1936       O  0.83626904  0.78469878  0.31356033    -0.81690
C1937       C  0.92165162  0.85677438  0.25410280     0.92160
C1938       C  0.88168709  0.89990580  0.17491577     0.92010
Mg1939     Mg  0.77327893  0.78878096  0.32741912     1.57950
O1940       O  0.75315463  0.79796211  0.37894839    -0.81610
O1941       O  0.78988427  0.77789394  0.27419718    -0.75850
O1942       O  0.91558124  0.88025821  0.24940592    -0.81690
O1943       O  0.81149835  0.94310966  0.19395348    -0.83400
O1944       O  0.68722548  0.82265521  0.28193240    -0.81720
C1945       C  0.81359443  0.79635269  0.25341806     0.86440
O1946       O  0.74600438  0.80711480  0.29933172    -0.88870
O1947       O  0.81580216  0.83908531  0.32788520    -0.88970
O1948       O  0.79114048  0.86520516  0.35114095    -0.76030
Mg1949     Mg  0.86552595  0.86436695  0.22652387     1.57970
O1950       O  0.90438337  0.83488545  0.27654097    -0.83400
H1951       H  0.76996203  0.83910734  0.18196264    -0.07130
O1952       O  0.77504502  0.88195832  0.28427776    -0.88670
H1953       H  0.78720393  0.92130574  0.31476006    -0.06950
H1954       H  0.72210509  0.76876548  0.26715496    -0.07130
C1955       C  0.79290664  0.91196281  0.29197927     0.86420
C1956       C  0.79146740  0.85234522  0.19824664     0.87010
C1957       C  0.73324098  0.79547606  0.27152095     0.87050
H1958       H  0.83734475  0.87291491  0.36493357    -0.07110
O1959       O  0.88607316  0.89678230  0.29917468    -0.76130
Mg1960     Mg  0.74021047  0.84567140  0.32148389     1.58000
H1961       H  0.89112499  0.93962611  0.27816610    -0.07120
C1962       C  0.78528816  0.94414301  0.20372934     0.92040
O1963       O  0.71271703  0.87407518  0.26865194    -0.83360
C1964       C  0.68950154  0.84555670  0.26157108     0.92100
O1965       O  0.90111557  0.91191396  0.19887833    -0.83350
Mg1966     Mg  0.86085685  0.83895703  0.30570664     1.58180
O1967       O  0.76715691  0.92662809  0.22830272    -0.81680
O1968       O  0.80573532  0.77203842  0.35907714    -0.83380
O1969       O  0.65528655  0.72778238  0.60286846    -0.88960
C1970       C  0.61979850  0.64554609  0.54108353     0.87070
Mg1971     Mg  0.66033764  0.77289607  0.58590854     1.58150
O1972       O  0.70755084  0.69576783  0.55838655    -0.88690
O1973       O  0.68256954  0.70679637  0.62741827    -0.76020
C1974       C  0.72694175  0.80040788  0.43016328     0.92120
O1975       O  0.60164906  0.71047173  0.54446278    -0.75840
O1976       O  0.71735254  0.81670094  0.44987617    -0.83340
Mg1977     Mg  0.60756004  0.68557457  0.59279552     1.57960
C1978       C  0.75037327  0.69910825  0.46942043     0.92040
O1979       O  0.61266410  0.65970626  0.64101652    -0.81610
H1980       H  0.74819660  0.71393145  0.58799587    -0.06950
C1981       C  0.67258760  0.71592028  0.47204315     0.86980
O1982       O  0.71795973  0.79300538  0.57662711    -0.76120
O1983       O  0.63401872  0.66654690  0.56340924    -0.88880
O1984       O  0.74797224  0.69645276  0.50082850    -0.81690
C1985       C  0.68636575  0.61312706  0.56176958     0.92160
C1986       C  0.62403150  0.63934551  0.64364007     0.92010
Mg1987     Mg  0.74366958  0.75828226  0.49245288     1.57950
O1988       O  0.73434976  0.77920860  0.44258953    -0.81610
O1989       O  0.75543232  0.74031738  0.54420781    -0.75850
O1990       O  0.66065277  0.61492456  0.56918851    -0.81690
O1991       O  0.58394479  0.71073051  0.62431563    -0.83400
O1992       O  0.70934694  0.84314134  0.54229679    -0.81720
C1993       C  0.73725150  0.71649880  0.56490888     0.86440
O1994       O  0.72602610  0.78494776  0.52308419    -0.88870
O1995       O  0.69281506  0.71560554  0.49249924    -0.88970
O1996       O  0.66768218  0.74108353  0.47003483    -0.76030
Mg1997     Mg  0.67005885  0.66166257  0.59291556     1.57970
O1998       O  0.70378932  0.62973459  0.53630283    -0.83400
H1999       H  0.68147691  0.74786735  0.64505107    -0.07130
O2000       O  0.65131111  0.75552409  0.53773859    -0.88670
H2001       H  0.61325445  0.74394958  0.50600990    -0.06950
H2002       H  0.76393776  0.80653193  0.55595445    -0.07130
C2003       C  0.62191815  0.73716080  0.52835961     0.86420
C2004       C  0.67329700  0.72847506  0.62602069     0.87010
C2005       C  0.73715180  0.79527449  0.55178964     0.87050
H2006       H  0.65950123  0.69497090  0.45501260    -0.07110
O2007       O  0.63714552  0.64105204  0.51867300    -0.76130
Mg2008     Mg  0.68736232  0.79119972  0.50166089     1.58000
H2009       H  0.59262127  0.63045615  0.54106560    -0.07120
C2010       C  0.58618463  0.73899134  0.61764403     0.92040
O2011       O  0.66050290  0.81545779  0.56513503    -0.83360
C2012       C  0.68891137  0.84077874  0.56640875     0.92100
O2013       O  0.62475352  0.62330575  0.61884570    -0.83350
Mg2014     Mg  0.69493713  0.67070431  0.51134677     1.58180
O2015       O  0.60566219  0.75802561  0.59476860    -0.81680
O2016       O  0.75940433  0.72761051  0.45671333    -0.83380
O2017       O  0.59050724  0.74110563  0.87528269    -0.88960
C2018       C  0.53526206  0.65250525  0.92671070     0.87070
Mg2019     Mg  0.62823026  0.78079820  0.90269091     1.58150
O2020       O  0.00313304  0.71001215  0.92835108    -0.88690
O2021       O  0.54359935  0.73540036  0.85740602    -0.76020
C2022       C  0.58893985  0.80007506  0.06075634     0.92120
O2023       O  0.61532767  0.71186411  0.93428079    -0.75840
O2024       O  0.61441263  0.81673809  0.04057461    -0.83340
Mg2025     Mg  0.58912268  0.69432935  0.88243645     1.57960
C2026       C  0.96392960  0.69914655  0.02146051     0.92040
O2027       O  0.55848057  0.66564800  0.83198097    -0.81610
H2028       H  0.97565625  0.72748819  0.90632099    -0.06950
C2029       C  0.55606310  0.71704269  0.01320301     0.86980
O2030       O  0.58971913  0.80007594  0.91443007    -0.76120
O2031       O  0.54194405  0.67587101  0.90714356    -0.88880
O2032       O  0.96214443  0.69765201  0.98990461    -0.81690
C2033       C  0.93836714  0.62322031  0.91513543     0.92160
C2034       C  0.52645140  0.65173936  0.82691288     0.92010
Mg2035     Mg  0.52872312  0.76171892  0.99968726     1.57950
O2036       O  0.56018790  0.77897903  0.04880532    -0.81610
O2037       O  0.49628690  0.74954904  0.95123296    -0.75850
O2038       O  0.96033885  0.63939361  0.89314237    -0.81690
O2039       O  0.64283501  0.72020680  0.85879804    -0.83400
O2040       O  0.64630600  0.84570322  0.94916589    -0.81720
C2041       C  0.99115546  0.72891634  0.92738928     0.86440
O2042       O  0.57240838  0.79033420  0.96799825    -0.88870
O2043       O  0.53689071  0.71916974  0.99274843    -0.88970
O2044       O  0.58612378  0.74142423  0.01707721    -0.76030
Mg2045     Mg  0.50612329  0.68730022  0.88383059     1.57970
O2046       O  0.94285886  0.63247743  0.94606317    -0.83400
H2047       H  0.58912226  0.77028800  0.83871936    -0.07130
O2048       O  0.61263741  0.75675213  0.94746766    -0.88670
H2049       H  0.63423423  0.73812905  0.97768813    -0.06950
H2050       H  0.55596651  0.81195406  0.93507120    -0.07130
C2051       C  0.62118101  0.73582117  0.95436624     0.86420
C2052       C  0.57520133  0.74927054  0.85569519     0.87010
C2053       C  0.57181979  0.80103255  0.93923930     0.87050
H2054       H  0.54693173  0.69476049  0.02871100    -0.07110
O2055       O  0.51887018  0.64901092  0.95367516    -0.76130
Mg2056     Mg  0.61630283  0.79230412  0.98704639     1.58000
H2057       H  0.54496025  0.63573212  0.92149944    -0.07120
C2058       C  0.66902188  0.74615649  0.87053340     0.92040
O2059       O  0.66858138  0.81745223  0.93255398    -0.83360
C2060       C  0.66569174  0.84256349  0.92761694     0.92100
O2061       O  0.50813720  0.65940581  0.84388732    -0.83350
Mg2062     Mg  0.99130926  0.67600322  0.97074195     1.58180
O2063       O  0.66698916  0.76443373  0.89330753    -0.81680
O2064       O  0.98346953  0.72724605  0.03496121    -0.83380
O2065       O  0.59544405  0.87507081  0.27264738    -0.88960
C2066       C  0.54866471  0.91287556  0.21105068     0.87070
Mg2067     Mg  0.63473179  0.87212114  0.25086504     1.58150
O2068       O  0.00587873  0.82623320  0.22909220    -0.88690
O2069       O  0.54462977  0.84546917  0.29173513    -0.76020
C2070       C  0.58909873  0.80536706  0.09869055     0.92120
O2071       O  0.62906346  0.93222365  0.21603867    -0.75840
O2072       O  0.61527175  0.81535101  0.11757767    -0.83340
Mg2073     Mg  0.59732549  0.92098488  0.26540778     1.57960
C2074       C  0.96060524  0.77904159  0.14543669     0.92040
O2075       O  0.56258454  0.90600344  0.31549710    -0.81610
H2076       H  0.98473712  0.78648624  0.26040842    -0.06950
C2077       C  0.55901209  0.85978553  0.14118135     0.86980
O2078       O  0.59625103  0.81442048  0.24270511    -0.76120
O2079       O  0.55411507  0.89724572  0.23308928    -0.88880
O2080       O  0.96349823  0.78497010  0.17634352    -0.81690
C2081       C  0.94965715  0.85691771  0.23468001     0.92160
C2082       C  0.53235487  0.90054870  0.31432486     0.92010
Mg2083     Mg  0.53056192  0.78893144  0.16300460     1.57950
O2084       O  0.56039062  0.79778924  0.11187816    -0.81610
O2085       O  0.50277308  0.77826480  0.21609562    -0.75850
O2086       O  0.97909792  0.88052837  0.23929716    -0.81690
O2087       O  0.64593473  0.94368719  0.29511166    -0.83400
O2088       O  0.65023727  0.82266293  0.20910609    -0.81720
C2089       C  0.99744913  0.79682520  0.23657146     0.86440
O2090       O  0.57599122  0.80714889  0.19126133    -0.88870
O2091       O  0.53848706  0.83931444  0.16192445    -0.88970
O2092       O  0.58929296  0.86508369  0.13862542    -0.76030
Mg2093     Mg  0.51318641  0.86479837  0.26275429     1.57970
O2094       O  0.94527935  0.83509323  0.21238702    -0.83400
H2095       H  0.58342785  0.83983259  0.30813890    -0.07130
O2096       O  0.62163299  0.88204256  0.20554347    -0.88670
H2097       H  0.64871402  0.92126115  0.17465542    -0.06950
H2098       H  0.56135641  0.76895247  0.22391781    -0.07130
C2099       C  0.63363339  0.91199791  0.19747303     0.86420
C2100       C  0.57516319  0.85295728  0.29158949     0.87010
C2101       C  0.57693888  0.79563889  0.21928548     0.87050
H2102       H  0.55096004  0.87291828  0.12439565    -0.07110
O2103       O  0.52549822  0.89708887  0.18966919    -0.76130
Mg2104     Mg  0.62049311  0.84558764  0.16893719     1.58000
H2105       H  0.56295446  0.94003637  0.21053894    -0.07120
C2106       C  0.67316406  0.94462437  0.28543230     0.92040
O2107       O  0.67593618  0.87406628  0.22217349    -0.83360
C2108       C  0.67071231  0.84555429  0.22941086     0.92100
O2109       O  0.52471542  0.91219563  0.29012146    -0.83350
Mg2110     Mg  0.99310037  0.83923843  0.18363444     1.58180
O2111       O  0.67377601  0.92700393  0.26107238    -0.81680
O2112       O  0.98151008  0.77242555  0.13096076    -0.83380
O2113       O  0.78952624  0.94347792  0.94724779    -0.88960
C2114       C  0.87676576  0.99785739  0.89260768     0.87070
Mg2115     Mg  0.74963406  0.90410975  0.92199459     1.58150
O2116       O  0.81888554  0.52916371  0.89326196    -0.88690
O2117       O  0.79450972  0.49056387  0.96394870    -0.76020
C2118       C  0.72788667  0.94043120  0.76414215     0.92120
O2119       O  0.81810132  0.91668429  0.88746330    -0.75840
O2120       O  0.71138560  0.91494310  0.78414207    -0.83340
Mg2121     Mg  0.83686207  0.94597704  0.93752625     1.57960
C2122       C  0.82986945  0.56774582  0.80263155     0.92040
O2123       O  0.86674185  0.97829328  0.98480587    -0.81610
H2124       H  0.80082220  0.55591725  0.91642535    -0.06950
C2125       C  0.81150590  0.97462940  0.80977061     0.86980
O2126       O  0.72866705  0.94097669  0.90954109    -0.76120
O2127       O  0.85294101  0.99137149  0.91180257    -0.88880
O2128       O  0.83012659  0.56919591  0.83407483    -0.81690
C2129       C  0.90730534  0.59341496  0.90374181     0.92160
C2130       C  0.88021513  0.51010004  0.98976875     0.92010
Mg2131     Mg  0.76670017  0.00161013  0.82401570     1.57950
O2132       O  0.74902197  0.96917795  0.77604673    -0.81610
O2133       O  0.77808861  0.53445732  0.87205567    -0.75850
O2134       O  0.89020700  0.57203078  0.92566753    -0.81690
O2135       O  0.81490118  0.89525169  0.96394933    -0.83400
O2136       O  0.68351761  0.88277211  0.87615206    -0.81720
C2137       C  0.79938167  0.54041453  0.89516833     0.86440
O2138       O  0.73815892  0.95789264  0.85603494    -0.88870
O2139       O  0.80936544  0.99403918  0.83020103    -0.88970
O2140       O  0.78730560  0.94439863  0.80645421    -0.76030
Mg2141     Mg  0.84212741  0.52751803  0.93634331     1.57970
O2142       O  0.89773339  0.58926958  0.87304102    -0.83400
H2143       H  0.76047663  0.94560351  0.98408115    -0.07130
O2144       O  0.77234394  0.91801624  0.87606938    -0.88670
H2145       H  0.78988436  0.89501156  0.84581032    -0.06950
H2146       H  0.71544441  0.97350444  0.88916371    -0.07130
C2147       C  0.79313326  0.90933595  0.86858922     0.86420
C2148       C  0.78124112  0.95916464  0.96656802     0.87010
C2149       C  0.72717121  0.95834555  0.88485300     0.87050
H2150       H  0.83367430  0.98367939  0.79379995    -0.07110
O2151       O  0.88062889  0.51380386  0.86555114    -0.76130
Mg2152     Mg  0.73653095  0.91380565  0.83716024     1.58000
H2153       H  0.89350036  0.98826442  0.89818090    -0.07120
C2154       C  0.78876630  0.86780256  0.95521394     0.92040
O2155       O  0.71311847  0.86228331  0.89346667    -0.83360
C2156       C  0.68728667  0.86421537  0.89798123     0.92100
O2157       O  0.87111529  0.52791811  0.97471431    -0.83350
Mg2158     Mg  0.85277335  0.54050023  0.85038296     1.58180
O2159       O  0.76772046  0.86688988  0.93405362    -0.81680
O2160       O  0.80256500  0.54698988  0.78834974    -0.83380
O2161       O  0.66874741  0.94196940  0.53977895    -0.88960
C2162       C  0.63318272  0.99431341  0.59293744     0.87070
Mg2163     Mg  0.66917721  0.90413694  0.56767670     1.58150
O2164       O  0.72247778  0.52858656  0.59641939    -0.88690
O2165       O  0.71305442  0.48902503  0.52671335    -0.76020
C2166       C  0.72273963  0.94093153  0.72647986     0.92120
O2167       O  0.61114058  0.91437882  0.59887704    -0.75840
O2168       O  0.71478415  0.91602424  0.70610403    -0.83340
Mg2169     Mg  0.62346787  0.94409707  0.54890026     1.57960
C2170       C  0.74880202  0.57153344  0.68622923     0.92040
O2171       O  0.62632054  0.97692170  0.50201261    -0.81610
H2172       H  0.76766172  0.55771500  0.57467020    -0.06950
C2173       C  0.67373152  0.97514894  0.67894222     0.86980
O2174       O  0.72646532  0.94223216  0.58170788    -0.76120
O2175       O  0.65198634  0.98863894  0.57507801    -0.88880
O2176       O  0.74817414  0.57188297  0.65465646    -0.81690
C2177       C  0.69256777  0.58816367  0.57881124     0.92160
C2178       C  0.64575260  0.50854867  0.49705092     0.92010
Mg2179     Mg  0.74601120  0.00349786  0.66691144     1.57950
O2180       O  0.73001821  0.96993382  0.71504562    -0.81610
O2181       O  0.76878492  0.53692418  0.61963924    -0.75850
O2182       O  0.69292236  0.56677380  0.55992426    -0.81690
O2183       O  0.59560025  0.89385511  0.52269792    -0.83400
O2184       O  0.71305671  0.88392639  0.61519458    -0.81720
C2185       C  0.75346364  0.54168674  0.59566904     0.86440
O2186       O  0.73234568  0.95971758  0.63488697    -0.88870
O2187       O  0.69590318  0.99536757  0.65939069    -0.88970
O2188       O  0.66812946  0.94499856  0.68200371    -0.76030
Mg2189     Mg  0.69971100  0.52496571  0.55168875     1.57970
O2190       O  0.69684789  0.58705579  0.61058047    -0.83400
H2191       H  0.70227384  0.94467631  0.50542294    -0.07130
O2192       O  0.65906088  0.91895333  0.61237370    -0.88670
H2193       H  0.61791674  0.89412846  0.64163889    -0.06950
H2194       H  0.77143447  0.97587754  0.60256527    -0.07130
C2195       C  0.62910663  0.90865111  0.61890786     0.86420
C2196       C  0.69421216  0.95797595  0.52227409     0.87010
C2197       C  0.74454531  0.96022404  0.60644851     0.87050
H2198       H  0.65964013  0.98341814  0.69442180    -0.07110
O2199       O  0.64346984  0.51052282  0.62004151    -0.76130
Mg2200     Mg  0.68979001  0.91504123  0.65257306     1.58000
H2201       H  0.60696256  0.98350828  0.58627734    -0.07120
C2202       C  0.59438409  0.86662901  0.53232107     0.92040
O2203       O  0.66303663  0.86365899  0.59865230    -0.83360
C2204       C  0.69045089  0.86492338  0.59400348     0.92100
O2205       O  0.67302997  0.52518895  0.51168491    -0.83350
Mg2206     Mg  0.69707370  0.54024095  0.63681836     1.58180
O2207       O  0.61448241  0.86610155  0.55385920    -0.81680
O2208       O  0.75411822  0.54984200  0.70086831    -0.83380
O2209       O  0.86141130  0.78458784  0.12157370    -0.88960
C2210       C  0.89590343  0.87248400  0.06695445     0.87070
Mg2211     Mg  0.86247956  0.74819445  0.09057887     1.58150
O2212       O  0.80686142  0.82365636  0.06296623    -0.88690
O2213       O  0.81268229  0.78239124  0.12045631    -0.76020
C2214       C  0.80767491  0.73460347  0.93169437     0.92120
O2215       O  0.92070734  0.81522520  0.06053761    -0.75840
O2216       O  0.81637200  0.71779761  0.95138722    -0.83340
Mg2217     Mg  0.90675832  0.83279269  0.10932555     1.57960
C2218       C  0.78056456  0.83712332  0.97350134     0.92040
O2219       O  0.90714469  0.86875474  0.15198733    -0.81610
H2220       H  0.76113879  0.80620599  0.08405985    -0.06950
C2221       C  0.85682762  0.81729128  0.98025724     0.86980
O2222       O  0.80478375  0.72863773  0.07575665    -0.76120
O2223       O  0.87668582  0.84656268  0.08251482    -0.88880
O2224       O  0.78203502  0.83929175  0.00503090    -0.81690
C2225       C  0.83914079  0.90916402  0.08558620     0.92160
C2226       C  0.88088913  0.87079721  0.15816049     0.92010
Mg2227     Mg  0.78442442  0.77275147  0.99264539     1.57950
O2228       O  0.80012757  0.75590485  0.94391628    -0.81610
O2229       O  0.76169076  0.78346616  0.04007158    -0.75850
O2230       O  0.84100392  0.88874849  0.10550733    -0.81690
O2231       O  0.93568807  0.81232689  0.13643536    -0.83400
O2232       O  0.81931410  0.68675380  0.04139668    -0.81720
C2233       C  0.77603914  0.80468667  0.06346691     0.86440
O2234       O  0.79928338  0.74308386  0.02380087    -0.88870
O2235       O  0.83436463  0.81511377  0.99970010    -0.88970
O2236       O  0.86287664  0.79299347  0.97698365    -0.76030
Mg2237     Mg  0.82949242  0.83542406  0.10819769     1.57970
O2238       O  0.83287868  0.90255743  0.05401526    -0.83400
H2239       H  0.82095095  0.74906446  0.14571639    -0.07130
O2240       O  0.87211650  0.77436297  0.04643478    -0.88670
H2241       H  0.91311639  0.78829977  0.01746270    -0.06950
H2242       H  0.75979862  0.71793307  0.05515882    -0.07130
C2243       C  0.90224694  0.79247326  0.04007839     0.86420
C2244       C  0.83191727  0.77233424  0.13154799     0.87010
C2245       C  0.78678960  0.72973824  0.05154408     0.87050
H2246       H  0.87088610  0.83971660  0.96508083    -0.07110
O2247       O  0.88622613  0.88114526  0.04120695    -0.76130
Mg2248     Mg  0.84172336  0.74111092  0.00521722     1.58000
H2249       H  0.92193752  0.88708776  0.07450133    -0.07120
C2250       C  0.93721579  0.78621193  0.12756449     0.92040
O2251       O  0.86996543  0.71612868  0.05648134    -0.83360
C2252       C  0.84247323  0.69041730  0.06186449     0.92100
O2253       O  0.85301861  0.84493115  0.15492060    -0.83350
Mg2254     Mg  0.83312457  0.85844416  0.02359922     1.58180
O2255       O  0.91728551  0.76505383  0.10615287    -0.81680
O2256       O  0.77489101  0.80978443  0.95936064    -0.83380
O2257       O  0.73848383  0.66984566  0.71122193    -0.88960
C2258       C  0.65201635  0.63921678  0.76767944     0.87070
Mg2259     Mg  0.77893352  0.67105656  0.73569688     1.58150
O2260       O  0.71051763  0.72798885  0.76478198    -0.88690
O2261       O  0.73255286  0.71129334  0.69424046    -0.76020
C2262       C  0.80224877  0.72943324  0.89398620     0.92120
O2263       O  0.71130447  0.61536686  0.77164803    -0.75840
O2264       O  0.81837065  0.72005449  0.87375487    -0.83340
Mg2265     Mg  0.69170894  0.62516809  0.72196647     1.57960
C2266       C  0.70195784  0.75834325  0.85423480     0.92040
O2267       O  0.66194321  0.62758965  0.67481471    -0.81610
H2268       H  0.73038340  0.77211123  0.74033134    -0.06950
C2269       C  0.71802135  0.68143002  0.84805184     0.86980
O2270       O  0.79991097  0.72861956  0.74813853    -0.76120
O2271       O  0.67579378  0.65531161  0.74805745    -0.88880
O2272       O  0.70285214  0.75975643  0.82287019    -0.81690
C2273       C  0.62159691  0.70563071  0.75707789     0.92160
C2274       C  0.64801668  0.64556837  0.66980171     0.92010
Mg2275     Mg  0.76385151  0.75266795  0.83390945     1.57950
O2276       O  0.78129361  0.73759360  0.88234159    -0.81610
O2277       O  0.75293674  0.77353948  0.78489192    -0.75850
O2278       O  0.63728365  0.69825783  0.73577616    -0.81690
O2279       O  0.71366656  0.59532340  0.69544718    -0.83400
O2280       O  0.84620159  0.71536100  0.78315371    -0.81720
C2281       C  0.73120239  0.75829603  0.76203944     0.86440
O2282       O  0.79187705  0.73663787  0.80204178    -0.88870
O2283       O  0.72053112  0.70308010  0.82768959    -0.88970
O2284       O  0.74195786  0.67486478  0.85144336    -0.76030
Mg2285     Mg  0.68558645  0.70155085  0.72300688     1.57970
O2286       O  0.63292417  0.71407426  0.78692932    -0.83400
H2287       H  0.76641512  0.70009832  0.67352828    -0.07130
O2288       O  0.75706629  0.66252168  0.78215606    -0.88670
H2289       H  0.74041360  0.62252981  0.81268404    -0.06950
H2290       H  0.81407864  0.77449133  0.76868518    -0.07130
C2291       C  0.73661409  0.63322020  0.78998282     0.86420
C2292       C  0.74606520  0.69327192  0.69154236     0.87010
C2293       C  0.80228825  0.74770738  0.77304033     0.87050
H2294       H  0.69574721  0.66866552  0.86390190    -0.07110
O2295       O  0.64812393  0.65291082  0.79371328    -0.76130
Mg2296     Mg  0.79287678  0.69403246  0.82107738     1.58000
H2297       H  0.63496590  0.61281144  0.76312877    -0.07120
C2298       C  0.74031176  0.59455958  0.70382881     0.92040
O2299       O  0.81547100  0.66657686  0.76337498    -0.83360
C2300       C  0.84197795  0.69377016  0.76021901     0.92100
O2301       O  0.65618558  0.67214646  0.68521400    -0.83350
Mg2302     Mg  0.67760943  0.70790659  0.80817952     1.58180
O2303       O  0.76185767  0.61587744  0.72382422    -0.81680
O2304       O  0.72848974  0.76378566  0.86946046    -0.83380
loop_ 
_geom_bond_atom_site_label_1 
_geom_bond_atom_site_label_2 
_geom_bond_distance 
_geom_bond_site_symmetry_2 
_ccdc_geom_bond_type 
O1           Mg3   2.079       .  S
O1           Mg9   2.123       .  S
O1           C36   1.234       .  S
C2           O15   1.224       .  S
C2           H41   1.082       .  S
C2         O1191   1.260       .  A
Mg3          O32   2.043       .  S
Mg3          O47   2.275       .  S
Mg3          O43   2.096       .  S
Mg3          O14   2.340       .  S
O4          Mg46   2.119       .  S
O4          Mg29   2.050       .  S
O4           C25   1.236       .  S
O5         C1188   1.269       .  A
O5          Mg29   2.312   1_655  S
C6            O8   1.294       .  A
C6           O20   1.281       .  A
C6           C54   1.517       .  S
O7           C35   1.273       .  A
O7           Mg9   2.313       .  S
O8          Mg40   2.414       .  S
Mg9          O15   2.061       .  S
Mg9          O23   2.319       .  S
Mg9          O11   2.378       .  S
C10          O48   1.271       .  A
C10          O16   1.256       .  A
C10         C282   1.458       .  S
O11        C1170   1.296       .  A
H12          C25   1.080       .  S
C13          O27   1.242       .  S
C13          H38   1.081       .  S
C13          O28   1.283       .  A
O14          C37   1.280       .  A
O15       Mg1181   2.087       .  S
O16         Mg46   2.178       .  S
C17          O30   1.296       .  A
C17          O22   1.266       .  A
C17         C545   1.483       .  S
C18          O45   1.254       .  A
C18        O1163   1.296   1_455  A
C18         C306   1.469       .  S
Mg19         O26   2.141       .  S
Mg19         O27   2.184       .  S
Mg19         O20   2.322       .  S
Mg19       O1173   2.331       .  S
Mg19       O1200   2.325       .  S
O21          C25   1.271       .  A
O21       Mg1171   2.331       .  S
O22         Mg29   2.215       .  S
O23          C42   1.286       .  A
O24          C44   1.293       .  A
O24         Mg40   2.608       .  S
O26         Mg40   2.113       .  S
O26          C37   1.243       .  S
O27       Mg1198   2.224       .  S
O28         Mg40   2.362       .  S
Mg29       O1167   2.087   1_455  S
Mg29         O45   2.199       .  S
O30         Mg46   2.426       .  S
H31          C36   1.081       .  S
O32         Mg40   2.187       .  S
O32          C35   1.238       .  S
H33          C35   1.081       .  S
H34          C37   1.082       .  S
C36        O1157   1.269       .  A
O39        C1154   1.260   1_455  A
O39         Mg46   2.306       .  S
C42          O47   1.262       .  A
C42         C394   1.465       .  S
O43          C44   1.238       .  A
C44         C572   1.518       .  S
Mg46       O1179   2.224   1_455  S
O48       Mg1171   2.325       .  S
O49         Mg51   2.088       .  S
O49         Mg57   2.202       .  S
O49          C84   1.236       .  S
C50          O63   1.232       .  S
C50          H89   1.081       .  S
C50        O1239   1.257       .  A
Mg51         O80   2.037       .  S
Mg51         O95   2.313       .  S
Mg51         O91   2.142       .  S
Mg51         O62   2.405       .  S
O52         Mg94   2.115       .  S
O52         Mg77   2.012       .  S
O52          C73   1.236       .  S
O53        C1236   1.262       .  A
O53         Mg77   2.210   1_655  S
C54          O56   1.296       .  A
C54          O68   1.281       .  A
O55          C83   1.261       .  A
O55         Mg57   2.293       .  S
O56         Mg88   2.419       .  S
Mg57         O63   2.079       .  S
Mg57         O71   2.247       .  S
Mg57         O59   2.353       .  S
C58          O96   1.276       .  A
C58          O64   1.250       .  A
C58         C474   1.453       .  S
O59        C1218   1.272       .  A
H60          C73   1.081       .  S
C61          O75   1.241       .  S
C61          H86   1.081       .  S
C61          O76   1.282       .  A
O62          C85   1.287       .  A
O63       Mg1229   2.195       .  S
O64         Mg94   2.187       .  S
C65          O78   1.286       .  A
C65          O70   1.261       .  A
C65         C161   1.476       .  S
C66          O93   1.243       .  A
C66        O1211   1.272   1_455  A
C66         C354   1.474       .  S
Mg67         O74   2.185       .  S
Mg67         O75   2.159       .  S
Mg67         O68   2.325       .  S
Mg67       O1221   2.307       .  S
Mg67       O1248   2.360       .  S
O69          C73   1.269       .  A
O69       Mg1219   2.307       .  S
O70         Mg77   2.237       .  S
O71          C90   1.282       .  A
O72          C92   1.284       .  A
O72         Mg88   2.609       .  S
O74         Mg88   2.109       .  S
O74          C85   1.244       .  S
O75       Mg1246   2.224       .  S
O76         Mg88   2.355       .  S
Mg77       O1215   2.195   1_455  S
Mg77         O93   2.082       .  S
O78         Mg94   2.359       .  S
H79          C84   1.081       .  S
O80         Mg88   2.201       .  S
O80          C83   1.228       .  S
H81          C83   1.081       .  S
H82          C85   1.082       .  S
C84        O1205   1.262       .  A
O87        C1202   1.257   1_455  A
O87         Mg94   2.236       .  S
C90          O95   1.274       .  A
C90         C202   1.455       .  S
O91          C92   1.240       .  A
C92         C188   1.532       .  S
Mg94       O1227   2.224   1_455  S
O96       Mg1219   2.360       .  S
O97         Mg99   2.081       .  S
O97        Mg105   2.113       .  S
O97         C132   1.229       .  S
C98         O111   1.233       .  S
C98         H137   1.081       .  S
C98         O135   1.269       .  A
Mg99        O128   2.022       .  S
Mg99        O143   2.258       .  S
Mg99        O139   2.125       .  S
Mg99        O110   2.343       .  S
O100       Mg125   2.116       .  S
O100       Mg718   2.099   1_545  S
O100        C121   1.242   1_545  S
O101        C132   1.264       .  A
O101       Mg125   2.310       .  S
C102        O104   1.293       .  A
C102        O116   1.280       .  A
C102        C150   1.515       .  S
O103        C131   1.276       .  A
O103       Mg105   2.317       .  S
O104       Mg136   2.393       .  S
Mg105       O111   2.164       .  S
Mg105       O119   2.327       .  S
Mg105       O107   2.337       .  S
C106        O144   1.263       .  A
C106        O112   1.243       .  A
C106        C234   1.457       .  S
O107        C114   1.282       .  A
H108        C697   1.081       .  S
C109        O123   1.242       .  S
C109        H134   1.081       .  S
C109        O124   1.283       .  A
O110        C133   1.280       .  A
O111       Mg125   2.130       .  S
O112       Mg142   2.167       .  S
C113        O126   1.268       .  A
C113        O118   1.256       .  A
C113        C497   1.474       .  S
C114        O141   1.236       .  A
C114        C402   1.444   1_554  S
Mg115       O122   2.128       .  S
Mg115       O123   2.160       .  S
Mg115       O116   2.327       .  S
Mg115       O117   2.377       .  S
Mg115       O720   2.350   1_545  S
O117        C121   1.283   1_545  A
O118       Mg701   2.218       .  S
O119        C138   1.280       .  A
O120        C140   1.292       .  A
O120       Mg136   2.616       .  S
C121        H684   1.081       .  S
O122       Mg136   2.114       .  S
O122        C133   1.242       .  S
O123       Mg718   2.221   1_545  S
O124       Mg136   2.361       .  S
Mg125       O141   2.187       .  S
Mg125       O694   2.218   1_545  S
O126       Mg142   2.327       .  S
H127        C132   1.081       .  S
O128       Mg136   2.161       .  S
O128        C131   1.241       .  S
H129        C131   1.081       .  S
H130        C133   1.082       .  S
O135       Mg718   2.316   1_545  S
C138        O143   1.258       .  A
C138        C298   1.463       .  S
O139        C140   1.241       .  A
C140        C524   1.528       .  S
Mg142       O676   2.099       .  S
Mg142       O699   2.221       .  S
Mg142       O711   2.316       .  S
O144       Mg691   2.350       .  S
O145       Mg147   2.076       .  S
O145       Mg153   2.108       .  S
O145        C180   1.228       .  S
C146        O159   1.232       .  S
C146        H185   1.081       .  S
C146        O183   1.269       .  A
Mg147       O176   2.021       .  S
Mg147       O191   2.264       .  S
Mg147       O187   2.126       .  S
Mg147       O158   2.345       .  S
O148       Mg173   2.104       .  S
O148       Mg766   2.095   1_545  S
O148        C169   1.242   1_545  S
O149        C180   1.263       .  A
O149       Mg173   2.311       .  S
C150        O152   1.294       .  A
C150        O164   1.279       .  A
O151        C179   1.276       .  A
O151       Mg153   2.317       .  S
O152       Mg184   2.399       .  S
Mg153       O159   2.173       .  S
Mg153       O167   2.325       .  S
Mg153       O155   2.339       .  S
C154        O192   1.263       .  A
C154        O160   1.242       .  A
C154        C378   1.457       .  S
O155        C162   1.282       .  A
H156        C745   1.081       .  S
C157        O171   1.242       .  S
C157        H182   1.081       .  S
C157        O172   1.284       .  A
O158        C181   1.280       .  A
O159       Mg173   2.130       .  S
O160       Mg190   2.165       .  S
C161        O174   1.269       .  A
C161        O166   1.257       .  A
C162        O189   1.234       .  A
C162        C450   1.447       .  S
Mg163       O170   2.134       .  S
Mg163       O171   2.159       .  S
Mg163       O164   2.319       .  S
Mg163       O165   2.373       .  S
Mg163       O768   2.353   1_545  S
O165        C169   1.282   1_545  A
O166       Mg749   2.223       .  S
O167        C186   1.281       .  A
O168        C188   1.293       .  A
O168       Mg184   2.628       .  S
C169        H732   1.081       .  S
O170       Mg184   2.113       .  S
O170        C181   1.242       .  S
O171       Mg766   2.223   1_545  S
O172       Mg184   2.363       .  S
Mg173       O189   2.188       .  S
Mg173       O742   2.223   1_545  S
O174       Mg190   2.326       .  S
H175        C180   1.081       .  S
O176       Mg184   2.162       .  S
O176        C179   1.241       .  S
H177        C179   1.081       .  S
H178        C181   1.082       .  S
O183       Mg766   2.316   1_545  S
C186        O191   1.259       .  A
C186        C250   1.466       .  S
O187        C188   1.241       .  A
Mg190       O724   2.095       .  S
Mg190       O747   2.223       .  S
Mg190       O759   2.316       .  S
O192       Mg739   2.353       .  S
O193       Mg195   2.049       .  S
O193       Mg201   2.086       .  S
O193        C228   1.226       .  S
C194        O207   1.234       .  S
C194        H233   1.081       .  S
C194        O231   1.271       .  A
Mg195       O224   2.021       .  S
Mg195       O239   2.287       .  S
Mg195       O235   2.155       .  S
Mg195       O206   2.362       .  S
O196       Mg238   2.076       .  S
O196       Mg221   2.104       .  S
O196        C217   1.241       .  S
O197        C228   1.262       .  A
O197       Mg221   2.343       .  S
C198        O200   1.294       .  A
C198        O212   1.284       .  A
C198        C246   1.520       .  S
O199        C227   1.276       .  A
O199       Mg201   2.320       .  S
O200       Mg232   2.403       .  S
Mg201       O207   2.154       .  S
Mg201       O215   2.269       .  S
Mg201       O203   2.400       .  S
C202        O240   1.269       .  A
C202        O208   1.246       .  A
O203        C210   1.278       .  A
H204        C217   1.081       .  S
C205        O219   1.244       .  S
C205        H230   1.081       .  S
C205        O220   1.285       .  A
O206        C229   1.279       .  A
O207       Mg221   2.070       .  S
O208       Mg238   2.183       .  S
C209        O222   1.273       .  A
C209        O214   1.254       .  A
C209        C353   1.484       .  S
C210        O237   1.233       .  A
C210        C498   1.474       .  S
Mg211       O218   2.141       .  S
Mg211       O219   2.155       .  S
Mg211       O212   2.350       .  S
Mg211       O213   2.366       .  S
Mg211       O240   2.355       .  S
O213        C217   1.280       .  A
O214       Mg221   2.231       .  S
O215        C234   1.280       .  A
O216        C236   1.288       .  A
O216       Mg232   2.640       .  S
O218       Mg232   2.103       .  S
O218        C229   1.240       .  S
O219       Mg238   2.235       .  S
O220       Mg232   2.364       .  S
Mg221       O237   2.246       .  S
O222       Mg238   2.378       .  S
H223        C228   1.081       .  S
O224       Mg232   2.191       .  S
O224        C227   1.240       .  S
H225        C227   1.081       .  S
H226        C229   1.082       .  S
O231       Mg238   2.321       .  S
C234        O239   1.266       .  A
O235        C236   1.241       .  A
C236        C380   1.543       .  S
O241       Mg243   2.078       .  S
O241       Mg249   2.117       .  S
O241        C276   1.229       .  S
C242        O255   1.231       .  S
C242        H281   1.081       .  S
C242        O279   1.267       .  A
Mg243       O272   2.029       .  S
Mg243       O287   2.265       .  S
Mg243       O283   2.117       .  S
Mg243       O254   2.345       .  S
O244       Mg286   2.114       .  S
O244       Mg269   2.132       .  S
O244        C265   1.240       .  S
O245        C276   1.263       .  A
O245       Mg269   2.302       .  S
C246        O248   1.294       .  A
C246        O260   1.280       .  A
O247        C275   1.275       .  A
O247       Mg249   2.316       .  S
O248       Mg280   2.409       .  S
Mg249       O255   2.144       .  S
Mg249       O263   2.293       .  S
Mg249       O251   2.324       .  S
C250        O288   1.263       .  A
C250        O256   1.247       .  A
O251        C258   1.281       .  A
H252        C265   1.081       .  S
C253        O267   1.242       .  S
C253        H278   1.081       .  S
C253        O268   1.284       .  A
O254        C277   1.280       .  A
O255       Mg269   2.132       .  S
O256       Mg286   2.141       .  S
C257        O270   1.270       .  A
C257        O262   1.252       .  A
C257        C449   1.476       .  S
C258        O285   1.235       .  A
C258        C546   1.438       .  S
Mg259       O266   2.138       .  S
Mg259       O267   2.171       .  S
Mg259       O260   2.331       .  S
Mg259       O261   2.374       .  S
Mg259       O288   2.340       .  S
O261        C265   1.281       .  A
O262       Mg269   2.178       .  S
O263        C282   1.277       .  A
O264        C284   1.295       .  A
O264       Mg280   2.627       .  S
O266       Mg280   2.115       .  S
O266        C277   1.242       .  S
O267       Mg286   2.240       .  S
O268       Mg280   2.369       .  S
Mg269       O285   2.186       .  S
O270       Mg286   2.335       .  S
H271        C276   1.081       .  S
O272       Mg280   2.170       .  S
O272        C275   1.240       .  S
H273        C275   1.081       .  S
H274        C277   1.082       .  S
O279       Mg286   2.309       .  S
C282        O287   1.260       .  A
O283        C284   1.241       .  A
C284        C476   1.530       .  S
O289       Mg291   2.091       .  S
O289       Mg297   2.135       .  S
O289        C324   1.227       .  S
C290        O303   1.231       .  S
C290        H329   1.081       .  S
C290        O327   1.261       .  A
Mg291       O320   2.016       .  S
Mg291       O335   2.271       .  S
Mg291       O331   2.140       .  S
Mg291       O302   2.374       .  S
O292       Mg334   2.166       .  S
O292      Mg1469   2.081       .  S
O292        C313   1.236       .  S
O293        C324   1.258       .  A
O293       Mg317   2.260       .  S
C294        O296   1.295       .  A
C294        O308   1.279       .  A
C294        C342   1.519       .  S
O295        C323   1.272       .  A
O295       Mg297   2.318       .  S
O296       Mg328   2.414   1_554  S
Mg297       O303   2.115       .  S
Mg297       O311   2.319       .  S
Mg297       O299   2.427       .  S
C298        O336   1.267       .  A
C298        O304   1.251   1_554  A
O299        C306   1.292       .  A
H300        C313   1.081       .  S
C301        O315   1.239   1_554  S
C301        H326   1.081       .  S
C301        O316   1.280       .  A
O302        C325   1.286       .  A
O303       Mg317   2.169       .  S
O304       Mg334   2.153       .  S
C305        O318   1.279       .  A
C305        O310   1.249       .  A
C305        C401   1.473       .  S
C306        O333   1.248       .  A
Mg307       O314   2.152       .  S
Mg307       O315   2.179       .  S
Mg307       O308   2.322   1_556  S
Mg307       O309   2.328   1_455  S
Mg307      O1488   2.329   1_456  S
O309       C1465   1.273       .  A
O310      Mg1469   2.181       .  S
O311        C330   1.287       .  A
O312        C332   1.282       .  A
O312       Mg328   2.600       .  S
C313       O1461   1.273       .  A
O314       Mg328   2.113       .  S
O314        C325   1.246       .  S
O315      Mg1486   2.224   1_455  S
O316       Mg328   2.353   1_554  S
Mg317      O1444   2.081       .  S
Mg317       O333   2.061       .  S
Mg317      O1462   2.181   1_455  S
O318       Mg334   2.342       .  S
H319        C324   1.081       .  S
O320       Mg328   2.204       .  S
O320        C323   1.236       .  S
H321        C323   1.081       .  S
H322        C325   1.082       .  S
O327      Mg1486   2.261   1_455  S
C330        O335   1.263       .  A
C330        C538   1.463       .  S
O331        C332   1.240       .  A
C332        C428   1.530       .  S
Mg334      O1467   2.224       .  S
Mg334      O1479   2.261       .  S
O336      Mg1459   2.329   1_554  S
O337       Mg339   2.050       .  S
O337       Mg345   2.086       .  S
O337        C372   1.226       .  S
C338        O351   1.234       .  S
C338        H377   1.081       .  S
C338        O375   1.271       .  A
Mg339       O368   2.020       .  S
Mg339       O383   2.286       .  S
Mg339       O379   2.154       .  S
Mg339       O350   2.362       .  S
O340       Mg382   2.076       .  S
O340      Mg1517   2.103       .  S
O340        C361   1.240       .  S
O341        C372   1.262       .  A
O341       Mg365   2.342       .  S
C342        O344   1.294       .  A
C342        O356   1.285       .  A
O343        C371   1.277       .  A
O343       Mg345   2.321       .  S
O344       Mg376   2.403       .  S
Mg345       O351   2.153       .  S
Mg345       O359   2.271       .  S
Mg345       O347   2.403       .  S
C346        O384   1.270       .  A
C346        O352   1.246       .  A
C346        C522   1.457       .  S
O347        C354   1.279       .  A
H348        C361   1.081       .  S
C349        O363   1.244       .  S
C349        H374   1.081       .  S
C349        O364   1.285       .  A
O350        C373   1.279       .  A
O351       Mg365   2.070       .  S
O352       Mg382   2.183       .  S
C353        O366   1.273       .  A
C353        O358   1.254       .  A
C354        O381   1.233       .  A
Mg355       O362   2.142       .  S
Mg355       O363   2.155       .  S
Mg355       O356   2.347       .  S
Mg355       O357   2.365       .  S
Mg355      O1536   2.363   1_455  S
O357       C1513   1.280   1_455  A
O358      Mg1517   2.230       .  S
O359        C378   1.280       .  A
O360        C380   1.288       .  A
O360       Mg376   2.640       .  S
C361       O1509   1.280       .  A
O362       Mg376   2.105       .  S
O362        C373   1.240       .  S
O363      Mg1534   2.237   1_455  S
O364       Mg376   2.365       .  S
Mg365      O1492   2.103       .  S
Mg365       O381   2.244       .  S
Mg365      O1510   2.230   1_455  S
O366       Mg382   2.377       .  S
H367        C372   1.081       .  S
O368       Mg376   2.191       .  S
O368        C371   1.241       .  S
H369        C371   1.081       .  S
H370        C373   1.082       .  S
O375      Mg1534   2.321   1_455  S
C378        O383   1.265       .  A
O379        C380   1.241       .  A
Mg382      O1515   2.237       .  S
Mg382      O1527   2.321       .  S
O384      Mg1507   2.363       .  S
O385       Mg387   2.083       .  S
O385       Mg393   2.142       .  S
O385        C420   1.228       .  S
C386        O399   1.230       .  S
C386        H425   1.081       .  S
C386        O999   1.258       .  A
Mg387       O416   2.023       .  S
Mg387       O431   2.291       .  S
Mg387       O427   2.141       .  S
Mg387       O398   2.378       .  S
O388       Mg430   2.167       .  S
O388       Mg413   2.040       .  S
O388        C409   1.235       .  S
O389        C996   1.258       .  A
O389       Mg413   2.257   1_565  S
C390        O392   1.295       .  A
C390        O404   1.278       .  A
C390        C438   1.513       .  S
O391        C419   1.269       .  A
O391       Mg393   2.311       .  S
O392       Mg424   2.416       .  S
Mg393       O399   2.094       .  S
Mg393       O407   2.276       .  S
Mg393       O395   2.364       .  S
C394        O432   1.271       .  A
C394        O400   1.245       .  A
O395        C978   1.286       .  A
H396        C409   1.081       .  S
C397        O411   1.240       .  S
C397        H422   1.081       .  S
C397        O412   1.281       .  A
O398        C421   1.286       .  A
O399       Mg989   2.176       .  S
O400       Mg430   2.145       .  S
C401        O414   1.277       .  A
C401        O406   1.246       .  A
C402        O429   1.243       .  A
C402        O971   1.286   1_545  A
Mg403       O410   2.169       .  S
Mg403       O411   2.163       .  S
Mg403       O404   2.300       .  S
Mg403       O981   2.319       .  S
Mg403      O1008   2.363       .  S
O405        C409   1.270       .  A
O405       Mg979   2.319       .  S
O406       Mg413   2.168       .  S
O407        C426   1.282       .  A
O408        C428   1.286       .  A
O408       Mg424   2.604       .  S
O410       Mg424   2.121       .  S
O410        C421   1.245       .  S
O411      Mg1006   2.222       .  S
O412       Mg424   2.355       .  S
Mg413       O975   2.176   1_545  S
Mg413       O429   2.021       .  S
O414       Mg430   2.343       .  S
H415        C420   1.081       .  S
O416       Mg424   2.198       .  S
O416        C419   1.234       .  S
H417        C419   1.081       .  S
H418        C421   1.082       .  S
C420        O965   1.258       .  A
O423        C962   1.258   1_545  A
O423       Mg430   2.250       .  S
C426        O431   1.268       .  A
C426        C490   1.456       .  S
O427        C428   1.240       .  A
Mg430       O987   2.222   1_545  S
O432       Mg979   2.363       .  S
O433       Mg435   2.068       .  S
O433       Mg441   2.149       .  S
O433        C468   1.229       .  S
C434        O447   1.231       .  S
C434        H473   1.081       .  S
C434       O1047   1.258       .  A
Mg435       O464   2.023       .  S
Mg435       O479   2.299       .  S
Mg435       O475   2.125       .  S
Mg435       O446   2.388       .  S
O436       Mg478   2.183       .  S
O436       Mg461   2.027       .  S
O436        C457   1.234       .  S
O437       C1044   1.258       .  A
O437       Mg461   2.247   1_565  S
C438        O440   1.294       .  A
C438        O452   1.283       .  A
O439        C467   1.266       .  A
O439       Mg441   2.304       .  S
O440       Mg472   2.407       .  S
Mg441       O447   2.077       .  S
Mg441       O455   2.259       .  S
Mg441       O443   2.354       .  S
C442        O480   1.278       .  A
C442        O448   1.250       .  A
C442        C570   1.467       .  S
O443       C1026   1.284       .  A
H444        C457   1.081       .  S
C445        O459   1.240       .  S
C445        H470   1.081       .  S
C445        O460   1.281       .  A
O446        C469   1.287       .  A
O447      Mg1037   2.178       .  S
O448       Mg478   2.174       .  S
C449        O462   1.279       .  A
C449        O454   1.238       .  A
C450        O477   1.241       .  A
C450       O1019   1.284   1_545  A
Mg451       O458   2.187       .  S
Mg451       O459   2.156       .  S
Mg451       O452   2.323       .  S
Mg451      O1029   2.306       .  S
Mg451      O1056   2.382       .  S
O453        C457   1.268       .  A
O453      Mg1027   2.306       .  S
O454       Mg461   2.114       .  S
O455        C474   1.281       .  A
O456        C476   1.284       .  A
O456       Mg472   2.613       .  S
O458       Mg472   2.118       .  S
O458        C469   1.245       .  S
O459      Mg1054   2.222       .  S
O460       Mg472   2.356       .  S
Mg461      O1023   2.178   1_545  S
Mg461       O477   2.013       .  S
O462       Mg478   2.393       .  S
H463        C468   1.081       .  S
O464       Mg472   2.200       .  S
O464        C467   1.232       .  S
H465        C467   1.081       .  S
H466        C469   1.082       .  S
C468       O1013   1.258       .  A
O471       C1010   1.258   1_545  A
O471       Mg478   2.240       .  S
C474        O479   1.270       .  A
O475        C476   1.239       .  A
Mg478      O1035   2.222   1_545  S
O480      Mg1027   2.382       .  S
O481       Mg483   2.089       .  S
O481       Mg489   2.201       .  S
O481        C516   1.236       .  S
C482        O495   1.232       .  S
C482        H521   1.081       .  S
C482        O519   1.257       .  A
Mg483       O512   2.038       .  S
Mg483       O527   2.317       .  S
Mg483       O523   2.141       .  S
Mg483       O494   2.407       .  S
O484       Mg526   2.117       .  S
O484       Mg509   2.011       .  S
O484        C505   1.235       .  S
O485        C516   1.263       .  A
O485       Mg509   2.210       .  S
C486        O488   1.295       .  A
C486        O500   1.280       .  A
C486        C534   1.513       .  S
O487        C515   1.261       .  A
O487       Mg489   2.293       .  S
O488       Mg520   2.415   1_556  S
Mg489       O495   2.079       .  S
Mg489       O503   2.250       .  S
Mg489       O491   2.351       .  S
C490        O528   1.276       .  A
C490        O496   1.251   1_556  A
O491        C498   1.272       .  A
H492        C505   1.081       .  S
C493        O507   1.241       .  S
C493        H518   1.081       .  S
C493        O508   1.282       .  A
O494        C517   1.287       .  A
O495       Mg509   2.194       .  S
O496       Mg526   2.183       .  S
C497        O510   1.286       .  A
C497        O502   1.261       .  A
C498        O525   1.244       .  A
Mg499       O506   2.187   1_556  S
Mg499       O507   2.160       .  S
Mg499       O500   2.312       .  S
Mg499       O501   2.303   1_556  S
Mg499       O528   2.361       .  S
O501        C505   1.268       .  A
O502       Mg509   2.234       .  S
O503        C522   1.282       .  A
O504        C524   1.284       .  A
O504       Mg520   2.600       .  S
O506       Mg520   2.113       .  S
O506        C517   1.244       .  S
O507       Mg526   2.225   1_556  S
O508       Mg520   2.355   1_556  S
Mg509       O525   2.083       .  S
O510       Mg526   2.357       .  S
H511        C516   1.081       .  S
O512       Mg520   2.201       .  S
O512        C515   1.228       .  S
H513        C515   1.081       .  S
H514        C517   1.082       .  S
O519       Mg526   2.234       .  S
C522        O527   1.274       .  A
O523        C524   1.240       .  A
O529       Mg531   2.075       .  S
O529       Mg537   2.140       .  S
O529        C564   1.228       .  S
C530        O543   1.231       .  S
C530        H569   1.081       .  S
C530        O567   1.261       .  A
Mg531       O560   2.026       .  S
Mg531       O575   2.296       .  S
Mg531       O571   2.103       .  S
Mg531       O542   2.370       .  S
O532       Mg574   2.153       .  S
O532       Mg557   2.039       .  S
O532        C553   1.237       .  S
O533        C564   1.259       .  A
O533       Mg557   2.260       .  S
C534        O536   1.293       .  A
C534        O548   1.281       .  A
O535        C563   1.268       .  A
O535       Mg537   2.305       .  S
O536       Mg568   2.404       .  S
Mg537       O543   2.118       .  S
Mg537       O551   2.308       .  S
Mg537       O539   2.357       .  S
C538        O576   1.270       .  A
C538        O544   1.242       .  A
O539        C546   1.286       .  A
H540        C553   1.081       .  S
C541        O555   1.240       .  S
C541        H566   1.081       .  S
C541        O556   1.281       .  A
O542        C565   1.285       .  A
O543       Mg557   2.177       .  S
O544       Mg574   2.145       .  S
C545        O558   1.274       .  A
C545        O550   1.252       .  A
C546        O573   1.243       .  A
Mg547       O554   2.162       .  S
Mg547       O555   2.164       .  S
Mg547       O548   2.319       .  S
Mg547       O549   2.331       .  S
Mg547       O576   2.372       .  S
O549        C553   1.272       .  A
O550       Mg557   2.193       .  S
O551        C570   1.284       .  A
O552        C572   1.285       .  A
O552       Mg568   2.591       .  S
O554       Mg568   2.119       .  S
O554        C565   1.246       .  S
O555       Mg574   2.230       .  S
O556       Mg568   2.356       .  S
Mg557       O573   2.023       .  S
O558       Mg574   2.363       .  S
H559        C564   1.081       .  S
O560       Mg568   2.198       .  S
O560        C563   1.234       .  S
H561        C563   1.081       .  S
H562        C565   1.082       .  S
O567       Mg574   2.266       .  S
C570        O575   1.268       .  A
O571        C572   1.239       .  A
O577       Mg579   2.079       .  S
O577       Mg585   2.123       .  S
O577        C612   1.234       .  S
C578        O591   1.224       .  S
C578        H617   1.082       .  S
C578       O1767   1.260       .  A
Mg579       O608   2.043       .  S
Mg579       O623   2.275       .  S
Mg579       O619   2.096       .  S
Mg579       O590   2.340       .  S
O580       Mg622   2.119       .  S
O580       Mg605   2.050       .  S
O580        C601   1.236       .  S
O581       C1764   1.269       .  A
O581       Mg605   2.312   1_655  S
C582        O584   1.294       .  A
C582        O596   1.281       .  A
C582        C630   1.517       .  S
O583        C611   1.273       .  A
O583       Mg585   2.313       .  S
O584       Mg616   2.414       .  S
Mg585       O591   2.061       .  S
Mg585       O599   2.319       .  S
Mg585       O587   2.378       .  S
C586        O624   1.271       .  A
C586        O592   1.256       .  A
C586        C858   1.458       .  S
O587       C1746   1.296       .  A
H588        C601   1.080       .  S
C589        O603   1.242       .  S
C589        H614   1.081       .  S
C589        O604   1.283       .  A
O590        C613   1.280       .  A
O591      Mg1757   2.087       .  S
O592       Mg622   2.178       .  S
C593        O606   1.296       .  A
C593        O598   1.266       .  A
C593       C1121   1.483       .  S
C594       O1739   1.296   1_455  A
C594        O621   1.254       .  A
C594        C882   1.469       .  S
Mg595       O602   2.141       .  S
Mg595       O603   2.184       .  S
Mg595       O596   2.322       .  S
Mg595      O1749   2.331       .  S
Mg595      O1776   2.325       .  S
O597        C601   1.271       .  A
O597      Mg1747   2.331       .  S
O598       Mg605   2.215       .  S
O599        C618   1.286       .  A
O600        C620   1.293       .  A
O600       Mg616   2.608       .  S
O602       Mg616   2.113       .  S
O602        C613   1.243       .  S
O603      Mg1774   2.224       .  S
O604       Mg616   2.362       .  S
Mg605      O1743   2.087   1_455  S
Mg605       O621   2.199       .  S
O606       Mg622   2.426       .  S
H607        C612   1.081       .  S
O608       Mg616   2.187       .  S
O608        C611   1.238       .  S
H609        C611   1.081       .  S
H610        C613   1.082       .  S
C612       O1733   1.269       .  A
O615       C1730   1.260   1_455  A
O615       Mg622   2.306       .  S
C618        O623   1.262       .  A
C618        C970   1.465       .  S
O619        C620   1.238       .  A
C620       C1148   1.518       .  S
Mg622      O1755   2.224   1_455  S
O624      Mg1747   2.325       .  S
O625       Mg627   2.088       .  S
O625       Mg633   2.202       .  S
O625        C660   1.236       .  S
C626        O639   1.232       .  S
C626        H665   1.081       .  S
C626       O1815   1.257       .  A
Mg627       O656   2.037       .  S
Mg627       O671   2.313       .  S
Mg627       O667   2.142       .  S
Mg627       O638   2.405       .  S
O628       Mg670   2.115       .  S
O628       Mg653   2.012       .  S
O628        C649   1.236       .  S
O629       C1812   1.262       .  A
O629       Mg653   2.210   1_655  S
C630        O632   1.296       .  A
C630        O644   1.281       .  A
O631        C659   1.261       .  A
O631       Mg633   2.293       .  S
O632       Mg664   2.419       .  S
Mg633       O639   2.079       .  S
Mg633       O647   2.247       .  S
Mg633       O635   2.353       .  S
C634        O672   1.276       .  A
C634        O640   1.250       .  A
C634       C1050   1.453       .  S
O635       C1794   1.272       .  A
H636        C649   1.081       .  S
C637        O651   1.241       .  S
C637        H662   1.081       .  S
C637        O652   1.282       .  A
O638        C661   1.287       .  A
O639      Mg1805   2.195       .  S
O640       Mg670   2.187       .  S
C641        O654   1.286       .  A
C641        O646   1.261       .  A
C641        C737   1.476       .  S
C642       O1787   1.272   1_455  A
C642        O669   1.243       .  A
C642        C930   1.474       .  S
Mg643       O650   2.185       .  S
Mg643       O651   2.159       .  S
Mg643       O644   2.325       .  S
Mg643      O1797   2.307       .  S
Mg643      O1824   2.360       .  S
O645        C649   1.269       .  A
O645      Mg1795   2.307       .  S
O646       Mg653   2.237       .  S
O647        C666   1.282       .  A
O648        C668   1.284       .  A
O648       Mg664   2.609       .  S
O650       Mg664   2.109       .  S
O650        C661   1.244       .  S
O651      Mg1822   2.224       .  S
O652       Mg664   2.355       .  S
Mg653      O1791   2.195   1_455  S
Mg653       O669   2.082       .  S
O654       Mg670   2.359       .  S
H655        C660   1.081       .  S
O656       Mg664   2.201       .  S
O656        C659   1.228       .  S
H657        C659   1.081       .  S
H658        C661   1.082       .  S
C660       O1781   1.262       .  A
O663       C1778   1.257   1_455  A
O663       Mg670   2.236       .  S
C666        O671   1.274       .  A
C666        C778   1.455       .  S
O667        C668   1.240       .  A
C668        C764   1.532       .  S
Mg670      O1803   2.224   1_455  S
O672      Mg1795   2.360       .  S
O673       Mg675   2.081       .  S
O673       Mg681   2.113       .  S
O673        C708   1.229       .  S
C674        O687   1.233       .  S
C674        H713   1.081       .  S
C674        O711   1.269       .  A
Mg675       O704   2.022       .  S
Mg675       O719   2.258       .  S
Mg675       O715   2.125       .  S
Mg675       O686   2.343       .  S
O676       Mg701   2.116       .  S
O676        C697   1.242       .  S
O677        C708   1.264       .  A
O677       Mg701   2.310       .  S
C678        O680   1.293       .  A
C678        O692   1.280       .  A
C678        C726   1.515       .  S
O679        C707   1.276       .  A
O679       Mg681   2.317       .  S
O680       Mg712   2.393       .  S
Mg681       O687   2.164       .  S
Mg681       O695   2.327       .  S
Mg681       O683   2.337       .  S
C682        O720   1.263       .  A
C682        O688   1.243       .  A
C682        C810   1.457       .  S
O683        C690   1.282       .  A
C685        O699   1.242       .  S
C685        H710   1.081       .  S
C685        O700   1.283       .  A
O686        C709   1.280       .  A
O687       Mg701   2.130       .  S
O688       Mg718   2.167       .  S
C689        O702   1.268       .  A
C689        O694   1.256       .  A
C689       C1073   1.474       .  S
C690        O717   1.236       .  A
C690        C978   1.444   1_554  S
Mg691       O698   2.128       .  S
Mg691       O699   2.160       .  S
Mg691       O692   2.327       .  S
Mg691       O693   2.377       .  S
O693        C697   1.283       .  A
O695        C714   1.280       .  A
O696        C716   1.292       .  A
O696       Mg712   2.616       .  S
O698       Mg712   2.114       .  S
O698        C709   1.242       .  S
O700       Mg712   2.361       .  S
Mg701       O717   2.187       .  S
O702       Mg718   2.327       .  S
H703        C708   1.081       .  S
O704       Mg712   2.161       .  S
O704        C707   1.241       .  S
H705        C707   1.081       .  S
H706        C709   1.082       .  S
C714        O719   1.258       .  A
C714        C874   1.463       .  S
O715        C716   1.241       .  A
C716       C1100   1.528       .  S
O721       Mg723   2.076       .  S
O721       Mg729   2.108       .  S
O721        C756   1.228       .  S
C722        O735   1.232       .  S
C722        H761   1.081       .  S
C722        O759   1.269       .  A
Mg723       O752   2.021       .  S
Mg723       O767   2.264       .  S
Mg723       O763   2.126       .  S
Mg723       O734   2.345       .  S
O724       Mg749   2.104       .  S
O724        C745   1.242       .  S
O725        C756   1.263       .  A
O725       Mg749   2.311       .  S
C726        O728   1.294       .  A
C726        O740   1.279       .  A
O727        C755   1.276       .  A
O727       Mg729   2.317       .  S
O728       Mg760   2.399       .  S
Mg729       O735   2.173       .  S
Mg729       O743   2.325       .  S
Mg729       O731   2.339       .  S
C730        O768   1.263       .  A
C730        O736   1.242       .  A
C730        C954   1.457       .  S
O731        C738   1.282       .  A
C733        O747   1.242       .  S
C733        H758   1.081       .  S
C733        O748   1.284       .  A
O734        C757   1.280       .  A
O735       Mg749   2.130       .  S
O736       Mg766   2.165       .  S
C737        O750   1.269       .  A
C737        O742   1.257       .  A
C738        O765   1.234       .  A
C738       C1026   1.447       .  S
Mg739       O746   2.134       .  S
Mg739       O747   2.159       .  S
Mg739       O740   2.319       .  S
Mg739       O741   2.373       .  S
O741        C745   1.282       .  A
O743        C762   1.281       .  A
O744        C764   1.293       .  A
O744       Mg760   2.628       .  S
O746       Mg760   2.113       .  S
O746        C757   1.242       .  S
O748       Mg760   2.363       .  S
Mg749       O765   2.188       .  S
O750       Mg766   2.326       .  S
H751        C756   1.081       .  S
O752       Mg760   2.162       .  S
O752        C755   1.241       .  S
H753        C755   1.081       .  S
H754        C757   1.082       .  S
C762        O767   1.259       .  A
C762        C826   1.466       .  S
O763        C764   1.241       .  A
O769       Mg771   2.049       .  S
O769       Mg777   2.086       .  S
O769        C804   1.226       .  S
C770        O783   1.234       .  S
C770        H809   1.081       .  S
C770        O807   1.271       .  A
Mg771       O800   2.021       .  S
Mg771       O815   2.287       .  S
Mg771       O811   2.155       .  S
Mg771       O782   2.362       .  S
O772       Mg814   2.076       .  S
O772       Mg797   2.104       .  S
O772        C793   1.241       .  S
O773        C804   1.262       .  A
O773       Mg797   2.343       .  S
C774        O776   1.294       .  A
C774        O788   1.284       .  A
C774        C822   1.520       .  S
O775        C803   1.276       .  A
O775       Mg777   2.320       .  S
O776       Mg808   2.403       .  S
Mg777       O783   2.154       .  S
Mg777       O791   2.269       .  S
Mg777       O779   2.400       .  S
C778        O816   1.269       .  A
C778        O784   1.246       .  A
O779        C786   1.278       .  A
H780        C793   1.081       .  S
C781        O795   1.244       .  S
C781        H806   1.081       .  S
C781        O796   1.285       .  A
O782        C805   1.279       .  A
O783       Mg797   2.070       .  S
O784       Mg814   2.183       .  S
C785        O798   1.273       .  A
C785        O790   1.254       .  A
C785        C929   1.484       .  S
C786        O813   1.233       .  A
C786       C1074   1.474       .  S
Mg787       O794   2.141       .  S
Mg787       O795   2.155       .  S
Mg787       O788   2.350       .  S
Mg787       O789   2.366       .  S
Mg787       O816   2.355       .  S
O789        C793   1.280       .  A
O790       Mg797   2.231       .  S
O791        C810   1.280       .  A
O792        C812   1.288       .  A
O792       Mg808   2.640       .  S
O794       Mg808   2.103       .  S
O794        C805   1.240       .  S
O795       Mg814   2.235       .  S
O796       Mg808   2.364       .  S
Mg797       O813   2.246       .  S
O798       Mg814   2.378       .  S
H799        C804   1.081       .  S
O800       Mg808   2.191       .  S
O800        C803   1.240       .  S
H801        C803   1.081       .  S
H802        C805   1.082       .  S
O807       Mg814   2.321       .  S
C810        O815   1.266       .  A
O811        C812   1.241       .  A
C812        C956   1.543       .  S
O817       Mg819   2.078       .  S
O817       Mg825   2.117       .  S
O817        C852   1.229       .  S
C818        O831   1.231       .  S
C818        H857   1.081       .  S
C818        O855   1.267       .  A
Mg819       O848   2.029       .  S
Mg819       O863   2.265       .  S
Mg819       O859   2.117       .  S
Mg819       O830   2.345       .  S
O820       Mg862   2.114       .  S
O820       Mg845   2.132       .  S
O820        C841   1.240       .  S
O821        C852   1.263       .  A
O821       Mg845   2.302       .  S
C822        O824   1.294       .  A
C822        O836   1.280       .  A
O823        C851   1.275       .  A
O823       Mg825   2.316       .  S
O824       Mg856   2.409       .  S
Mg825       O831   2.144       .  S
Mg825       O839   2.293       .  S
Mg825       O827   2.324       .  S
C826        O864   1.263       .  A
C826        O832   1.247       .  A
O827        C834   1.281       .  A
H828        C841   1.081       .  S
C829        O843   1.242       .  S
C829        H854   1.081       .  S
C829        O844   1.284       .  A
O830        C853   1.280       .  A
O831       Mg845   2.132       .  S
O832       Mg862   2.141       .  S
C833        O846   1.270       .  A
C833        O838   1.252       .  A
C833       C1025   1.476       .  S
C834        O861   1.235       .  A
C834       C1122   1.438       .  S
Mg835       O842   2.138       .  S
Mg835       O843   2.171       .  S
Mg835       O836   2.331       .  S
Mg835       O837   2.374       .  S
Mg835       O864   2.340       .  S
O837        C841   1.281       .  A
O838       Mg845   2.178       .  S
O839        C858   1.277       .  A
O840        C860   1.295       .  A
O840       Mg856   2.627       .  S
O842       Mg856   2.115       .  S
O842        C853   1.242       .  S
O843       Mg862   2.240       .  S
O844       Mg856   2.369       .  S
Mg845       O861   2.186       .  S
O846       Mg862   2.335       .  S
H847        C852   1.081       .  S
O848       Mg856   2.170       .  S
O848        C851   1.240       .  S
H849        C851   1.081       .  S
H850        C853   1.082       .  S
O855       Mg862   2.309       .  S
C858        O863   1.260       .  A
O859        C860   1.241       .  A
C860       C1052   1.530       .  S
O865       Mg867   2.091       .  S
O865       Mg873   2.135       .  S
O865        C900   1.227       .  S
C866        O879   1.231       .  S
C866        H905   1.081       .  S
C866        O903   1.261       .  A
Mg867       O896   2.016       .  S
Mg867       O911   2.271       .  S
Mg867       O907   2.140       .  S
Mg867       O878   2.374       .  S
O868       Mg910   2.166       .  S
O868      Mg2045   2.081       .  S
O868        C889   1.236       .  S
O869        C900   1.258       .  A
O869       Mg893   2.260       .  S
C870        O872   1.295       .  A
C870        O884   1.279       .  A
C870        C918   1.519       .  S
O871        C899   1.272       .  A
O871       Mg873   2.318       .  S
O872       Mg904   2.414   1_554  S
Mg873       O879   2.115       .  S
Mg873       O887   2.319       .  S
Mg873       O875   2.427       .  S
C874        O912   1.267       .  A
C874        O880   1.251   1_554  A
O875        C882   1.292       .  A
H876        C889   1.081       .  S
C877        O891   1.239   1_554  S
C877        H902   1.081       .  S
C877        O892   1.280       .  A
O878        C901   1.286       .  A
O879       Mg893   2.169       .  S
O880       Mg910   2.153       .  S
C881        O894   1.279       .  A
C881        O886   1.249       .  A
C881        C977   1.473       .  S
C882        O909   1.248       .  A
Mg883       O890   2.152       .  S
Mg883       O891   2.179       .  S
Mg883       O884   2.322   1_556  S
Mg883       O885   2.328   1_455  S
Mg883      O2064   2.329   1_456  S
O885       C2041   1.273       .  A
O886      Mg2045   2.181       .  S
O887        C906   1.287       .  A
O888        C908   1.282       .  A
O888       Mg904   2.600       .  S
C889       O2037   1.273       .  A
O890       Mg904   2.113       .  S
O890        C901   1.246       .  S
O891      Mg2062   2.224   1_455  S
O892       Mg904   2.353   1_554  S
Mg893      O2020   2.081       .  S
Mg893      O2038   2.181   1_455  S
Mg893       O909   2.061       .  S
O894       Mg910   2.342       .  S
H895        C900   1.081       .  S
O896       Mg904   2.204       .  S
O896        C899   1.236       .  S
H897        C899   1.081       .  S
H898        C901   1.082       .  S
O903      Mg2062   2.261   1_455  S
C906        O911   1.263       .  A
C906       C1114   1.463       .  S
O907        C908   1.240       .  A
C908       C1004   1.530       .  S
Mg910      O2043   2.224       .  S
Mg910      O2055   2.261       .  S
O912      Mg2035   2.329   1_554  S
O913       Mg915   2.050       .  S
O913       Mg921   2.086       .  S
O913        C948   1.226       .  S
C914        O927   1.234       .  S
C914        H953   1.081       .  S
C914        O951   1.271       .  A
Mg915       O944   2.020       .  S
Mg915       O959   2.286       .  S
Mg915       O955   2.154       .  S
Mg915       O926   2.362       .  S
O916       Mg958   2.076       .  S
O916      Mg2093   2.103       .  S
O916        C937   1.240       .  S
O917        C948   1.262       .  A
O917       Mg941   2.342       .  S
C918        O920   1.294       .  A
C918        O932   1.285       .  A
O919        C947   1.277       .  A
O919       Mg921   2.321       .  S
O920       Mg952   2.403       .  S
Mg921       O927   2.153       .  S
Mg921       O935   2.271       .  S
Mg921       O923   2.403       .  S
C922        O960   1.270       .  A
C922        O928   1.246       .  A
C922       C1098   1.457       .  S
O923        C930   1.279       .  A
H924        C937   1.081       .  S
C925        O939   1.244       .  S
C925        H950   1.081       .  S
C925        O940   1.285       .  A
O926        C949   1.279       .  A
O927       Mg941   2.070       .  S
O928       Mg958   2.183       .  S
C929        O942   1.273       .  A
C929        O934   1.254       .  A
C930        O957   1.233       .  A
Mg931       O938   2.142       .  S
Mg931       O939   2.155       .  S
Mg931       O932   2.347       .  S
Mg931       O933   2.365       .  S
Mg931      O2112   2.363   1_455  S
O933       C2089   1.280   1_455  A
O934      Mg2093   2.230       .  S
O935        C954   1.280       .  A
O936        C956   1.288       .  A
O936       Mg952   2.640       .  S
C937       O2085   1.280       .  A
O938       Mg952   2.105       .  S
O938        C949   1.240       .  S
O939      Mg2110   2.237   1_455  S
O940       Mg952   2.365       .  S
Mg941      O2068   2.103       .  S
Mg941      O2086   2.230   1_455  S
Mg941       O957   2.244       .  S
O942       Mg958   2.377       .  S
H943        C948   1.081       .  S
O944       Mg952   2.191       .  S
O944        C947   1.241       .  S
H945        C947   1.081       .  S
H946        C949   1.082       .  S
O951      Mg2110   2.321   1_455  S
C954        O959   1.265       .  A
O955        C956   1.241       .  A
Mg958      O2091   2.237       .  S
Mg958      O2103   2.321       .  S
O960      Mg2083   2.363       .  S
O961       Mg963   2.083       .  S
O961       Mg969   2.142       .  S
O961        C996   1.228       .  S
C962        O975   1.230       .  S
C962       H1001   1.081       .  S
Mg963       O992   2.023       .  S
Mg963      O1007   2.291       .  S
Mg963      O1003   2.141       .  S
Mg963       O974   2.378       .  S
O964      Mg1006   2.167       .  S
O964       Mg989   2.040       .  S
O964        C985   1.235       .  S
O965       Mg989   2.257       .  S
C966        O968   1.295       .  A
C966        O980   1.278       .  A
C966       C1014   1.513       .  S
O967        C995   1.269       .  A
O967       Mg969   2.311       .  S
O968      Mg1000   2.416       .  S
Mg969       O975   2.094       .  S
Mg969       O983   2.276       .  S
Mg969       O971   2.364       .  S
C970       O1008   1.271       .  A
C970        O976   1.245       .  A
H972        C985   1.081       .  S
C973        O987   1.240       .  S
C973        H998   1.081       .  S
C973        O988   1.281       .  A
O974        C997   1.286       .  A
O976      Mg1006   2.145       .  S
C977        O990   1.277       .  A
C977        O982   1.246       .  A
C978       O1005   1.243       .  A
Mg979       O986   2.169   1_545  S
Mg979       O987   2.163   1_545  S
Mg979       O980   2.300   1_545  S
O981        C985   1.270       .  A
O982       Mg989   2.168       .  S
O983       C1002   1.282       .  A
O984       C1004   1.286       .  A
O984      Mg1000   2.604       .  S
O986      Mg1000   2.121       .  S
O986        C997   1.245       .  S
O988      Mg1000   2.355       .  S
Mg989      O1005   2.021       .  S
O990      Mg1006   2.343       .  S
H991        C996   1.081       .  S
O992      Mg1000   2.198       .  S
O992        C995   1.234       .  S
H993        C995   1.081       .  S
H994        C997   1.082       .  S
O999      Mg1006   2.250       .  S
C1002      O1007   1.268       .  A
C1002      C1066   1.456       .  S
O1003      C1004   1.240       .  A
O1009     Mg1011   2.068       .  S
O1009     Mg1017   2.149       .  S
O1009      C1044   1.229       .  S
C1010      O1023   1.231       .  S
C1010      H1049   1.081       .  S
Mg1011     O1040   2.023       .  S
Mg1011     O1055   2.299       .  S
Mg1011     O1051   2.125       .  S
Mg1011     O1022   2.388       .  S
O1012     Mg1054   2.183       .  S
O1012     Mg1037   2.027       .  S
O1012      C1033   1.234       .  S
O1013     Mg1037   2.247       .  S
C1014      O1016   1.294       .  A
C1014      O1028   1.283       .  A
O1015      C1043   1.266       .  A
O1015     Mg1017   2.304       .  S
O1016     Mg1048   2.407       .  S
Mg1017     O1023   2.077       .  S
Mg1017     O1031   2.259       .  S
Mg1017     O1019   2.354       .  S
C1018      O1056   1.278       .  A
C1018      O1024   1.250       .  A
C1018      C1146   1.467       .  S
H1020      C1033   1.081       .  S
C1021      O1035   1.240       .  S
C1021      H1046   1.081       .  S
C1021      O1036   1.281       .  A
O1022      C1045   1.287       .  A
O1024     Mg1054   2.174       .  S
C1025      O1038   1.279       .  A
C1025      O1030   1.238       .  A
C1026      O1053   1.241       .  A
Mg1027     O1034   2.187   1_545  S
Mg1027     O1035   2.156   1_545  S
Mg1027     O1028   2.323   1_545  S
O1029      C1033   1.268       .  A
O1030     Mg1037   2.114       .  S
O1031      C1050   1.281       .  A
O1032      C1052   1.284       .  A
O1032     Mg1048   2.613       .  S
O1034     Mg1048   2.118       .  S
O1034      C1045   1.245       .  S
O1036     Mg1048   2.356       .  S
Mg1037     O1053   2.013       .  S
O1038     Mg1054   2.393       .  S
H1039      C1044   1.081       .  S
O1040     Mg1048   2.200       .  S
O1040      C1043   1.232       .  S
H1041      C1043   1.081       .  S
H1042      C1045   1.082       .  S
O1047     Mg1054   2.240       .  S
C1050      O1055   1.270       .  A
O1051      C1052   1.239       .  A
O1057     Mg1059   2.089       .  S
O1057     Mg1065   2.201       .  S
O1057      C1092   1.236       .  S
C1058      O1071   1.232       .  S
C1058      H1097   1.081       .  S
C1058      O1095   1.257       .  A
Mg1059     O1088   2.038       .  S
Mg1059     O1103   2.317       .  S
Mg1059     O1099   2.141       .  S
Mg1059     O1070   2.407       .  S
O1060     Mg1102   2.117       .  S
O1060     Mg1085   2.011       .  S
O1060      C1081   1.235       .  S
O1061      C1092   1.263       .  A
O1061     Mg1085   2.210       .  S
C1062      O1064   1.295       .  A
C1062      O1076   1.280       .  A
C1062      C1110   1.513       .  S
O1063      C1091   1.261       .  A
O1063     Mg1065   2.293       .  S
O1064     Mg1096   2.415   1_556  S
Mg1065     O1071   2.079       .  S
Mg1065     O1079   2.250       .  S
Mg1065     O1067   2.351       .  S
C1066      O1104   1.276       .  A
C1066      O1072   1.251   1_556  A
O1067      C1074   1.272       .  A
H1068      C1081   1.081       .  S
C1069      O1083   1.241       .  S
C1069      H1094   1.081       .  S
C1069      O1084   1.282       .  A
O1070      C1093   1.287       .  A
O1071     Mg1085   2.194       .  S
O1072     Mg1102   2.183       .  S
C1073      O1086   1.286       .  A
C1073      O1078   1.261       .  A
C1074      O1101   1.244       .  A
Mg1075     O1082   2.187   1_556  S
Mg1075     O1083   2.160       .  S
Mg1075     O1076   2.312       .  S
Mg1075     O1077   2.303   1_556  S
Mg1075     O1104   2.361       .  S
O1077      C1081   1.268       .  A
O1078     Mg1085   2.234       .  S
O1079      C1098   1.282       .  A
O1080      C1100   1.284       .  A
O1080     Mg1096   2.600       .  S
O1082     Mg1096   2.113       .  S
O1082      C1093   1.244       .  S
O1083     Mg1102   2.225   1_556  S
O1084     Mg1096   2.355   1_556  S
Mg1085     O1101   2.083       .  S
O1086     Mg1102   2.357       .  S
H1087      C1092   1.081       .  S
O1088     Mg1096   2.201       .  S
O1088      C1091   1.228       .  S
H1089      C1091   1.081       .  S
H1090      C1093   1.082       .  S
O1095     Mg1102   2.234       .  S
C1098      O1103   1.274       .  A
O1099      C1100   1.240       .  A
O1105     Mg1107   2.075       .  S
O1105     Mg1113   2.140       .  S
O1105      C1140   1.228       .  S
C1106      O1119   1.231       .  S
C1106      H1145   1.081       .  S
C1106      O1143   1.261       .  A
Mg1107     O1136   2.026       .  S
Mg1107     O1151   2.296       .  S
Mg1107     O1147   2.103       .  S
Mg1107     O1118   2.370       .  S
O1108     Mg1150   2.153       .  S
O1108     Mg1133   2.039       .  S
O1108      C1129   1.237       .  S
O1109      C1140   1.259       .  A
O1109     Mg1133   2.260       .  S
C1110      O1112   1.293       .  A
C1110      O1124   1.281       .  A
O1111      C1139   1.268       .  A
O1111     Mg1113   2.305       .  S
O1112     Mg1144   2.404       .  S
Mg1113     O1119   2.118       .  S
Mg1113     O1127   2.308       .  S
Mg1113     O1115   2.357       .  S
C1114      O1152   1.270       .  A
C1114      O1120   1.242       .  A
O1115      C1122   1.286       .  A
H1116      C1129   1.081       .  S
C1117      O1131   1.240       .  S
C1117      H1142   1.081       .  S
C1117      O1132   1.281       .  A
O1118      C1141   1.285       .  A
O1119     Mg1133   2.177       .  S
O1120     Mg1150   2.145       .  S
C1121      O1134   1.274       .  A
C1121      O1126   1.252       .  A
C1122      O1149   1.243       .  A
Mg1123     O1130   2.162       .  S
Mg1123     O1131   2.164       .  S
Mg1123     O1124   2.319       .  S
Mg1123     O1125   2.331       .  S
Mg1123     O1152   2.372       .  S
O1125      C1129   1.272       .  A
O1126     Mg1133   2.193       .  S
O1127      C1146   1.284       .  A
O1128      C1148   1.285       .  A
O1128     Mg1144   2.591       .  S
O1130     Mg1144   2.119       .  S
O1130      C1141   1.246       .  S
O1131     Mg1150   2.230       .  S
O1132     Mg1144   2.356       .  S
Mg1133     O1149   2.023       .  S
O1134     Mg1150   2.363       .  S
H1135      C1140   1.081       .  S
O1136     Mg1144   2.198       .  S
O1136      C1139   1.234       .  S
H1137      C1139   1.081       .  S
H1138      C1141   1.082       .  S
O1143     Mg1150   2.266       .  S
C1146      O1151   1.268       .  A
O1147      C1148   1.239       .  A
O1153     Mg1155   2.079       .  S
O1153     Mg1161   2.123       .  S
O1153      C1188   1.234       .  S
C1154      O1167   1.224       .  S
C1154      H1193   1.082       .  S
Mg1155     O1184   2.043       .  S
Mg1155     O1199   2.275       .  S
Mg1155     O1195   2.096       .  S
Mg1155     O1166   2.340       .  S
O1156     Mg1198   2.119       .  S
O1156     Mg1181   2.050       .  S
O1156      C1177   1.236       .  S
O1157     Mg1181   2.312       .  S
C1158      O1160   1.294       .  A
C1158      O1172   1.281       .  A
C1158      C1206   1.517       .  S
O1159      C1187   1.273       .  A
O1159     Mg1161   2.313       .  S
O1160     Mg1192   2.414       .  S
Mg1161     O1167   2.061       .  S
Mg1161     O1175   2.319       .  S
Mg1161     O1163   2.378       .  S
C1162      O1200   1.271       .  A
C1162      O1168   1.256       .  A
C1162      C1434   1.458       .  S
H1164      C1177   1.080       .  S
C1165      O1179   1.242       .  S
C1165      H1190   1.081       .  S
C1165      O1180   1.283       .  A
O1166      C1189   1.280       .  A
O1168     Mg1198   2.178       .  S
C1169      O1182   1.296       .  A
C1169      O1174   1.266       .  A
C1169      C1697   1.483       .  S
C1170      O1197   1.254       .  A
C1170      C1458   1.469       .  S
Mg1171     O1178   2.141   1_455  S
Mg1171     O1179   2.184   1_455  S
Mg1171     O1172   2.322   1_455  S
O1173      C1177   1.271       .  A
O1174     Mg1181   2.215       .  S
O1175      C1194   1.286       .  A
O1176      C1196   1.293       .  A
O1176     Mg1192   2.608       .  S
O1178     Mg1192   2.113       .  S
O1178      C1189   1.243       .  S
O1180     Mg1192   2.362       .  S
Mg1181     O1197   2.199       .  S
O1182     Mg1198   2.426       .  S
H1183      C1188   1.081       .  S
O1184     Mg1192   2.187       .  S
O1184      C1187   1.238       .  S
H1185      C1187   1.081       .  S
H1186      C1189   1.082       .  S
O1191     Mg1198   2.306       .  S
C1194      O1199   1.262       .  A
C1194      C1546   1.465       .  S
O1195      C1196   1.238       .  A
C1196      C1724   1.518       .  S
O1201     Mg1203   2.088       .  S
O1201     Mg1209   2.202       .  S
O1201      C1236   1.236       .  S
C1202      O1215   1.232       .  S
C1202      H1241   1.081       .  S
Mg1203     O1232   2.037       .  S
Mg1203     O1247   2.313       .  S
Mg1203     O1243   2.142       .  S
Mg1203     O1214   2.405       .  S
O1204     Mg1246   2.115       .  S
O1204     Mg1229   2.012       .  S
O1204      C1225   1.236       .  S
O1205     Mg1229   2.210       .  S
C1206      O1208   1.296       .  A
C1206      O1220   1.281       .  A
O1207      C1235   1.261       .  A
O1207     Mg1209   2.293       .  S
O1208     Mg1240   2.419       .  S
Mg1209     O1215   2.079       .  S
Mg1209     O1223   2.247       .  S
Mg1209     O1211   2.353       .  S
C1210      O1248   1.276       .  A
C1210      O1216   1.250       .  A
C1210      C1626   1.453       .  S
H1212      C1225   1.081       .  S
C1213      O1227   1.241       .  S
C1213      H1238   1.081       .  S
C1213      O1228   1.282       .  A
O1214      C1237   1.287       .  A
O1216     Mg1246   2.187       .  S
C1217      O1230   1.286       .  A
C1217      O1222   1.261       .  A
C1217      C1313   1.476       .  S
C1218      O1245   1.243       .  A
C1218      C1506   1.474       .  S
Mg1219     O1226   2.185   1_455  S
Mg1219     O1227   2.159   1_455  S
Mg1219     O1220   2.325   1_455  S
O1221      C1225   1.269       .  A
O1222     Mg1229   2.237       .  S
O1223      C1242   1.282       .  A
O1224      C1244   1.284       .  A
O1224     Mg1240   2.609       .  S
O1226     Mg1240   2.109       .  S
O1226      C1237   1.244       .  S
O1228     Mg1240   2.355       .  S
Mg1229     O1245   2.082       .  S
O1230     Mg1246   2.359       .  S
H1231      C1236   1.081       .  S
O1232     Mg1240   2.201       .  S
O1232      C1235   1.228       .  S
H1233      C1235   1.081       .  S
H1234      C1237   1.082       .  S
O1239     Mg1246   2.236       .  S
C1242      O1247   1.274       .  A
C1242      C1354   1.455       .  S
O1243      C1244   1.240       .  A
C1244      C1340   1.532       .  S
O1249     Mg1251   2.081       .  S
O1249     Mg1257   2.113       .  S
O1249      C1284   1.229       .  S
C1250      O1263   1.233       .  S
C1250      H1289   1.081       .  S
C1250      O1287   1.269       .  A
Mg1251     O1280   2.022       .  S
Mg1251     O1295   2.258       .  S
Mg1251     O1291   2.125       .  S
Mg1251     O1262   2.343       .  S
O1252     Mg1870   2.099   1_545  S
O1252     Mg1277   2.116       .  S
O1252      C1273   1.242   1_545  S
O1253      C1284   1.264       .  A
O1253     Mg1277   2.310       .  S
C1254      O1256   1.293       .  A
C1254      O1268   1.280       .  A
C1254      C1302   1.515       .  S
O1255      C1283   1.276       .  A
O1255     Mg1257   2.317       .  S
O1256     Mg1288   2.393       .  S
Mg1257     O1263   2.164       .  S
Mg1257     O1271   2.327       .  S
Mg1257     O1259   2.337       .  S
C1258      O1296   1.263       .  A
C1258      O1264   1.243       .  A
C1258      C1386   1.457       .  S
O1259      C1266   1.282       .  A
H1260      C1849   1.081       .  S
C1261      O1275   1.242       .  S
C1261      H1286   1.081       .  S
C1261      O1276   1.283       .  A
O1262      C1285   1.280       .  A
O1263     Mg1277   2.130       .  S
O1264     Mg1294   2.167       .  S
C1265      O1278   1.268       .  A
C1265      O1270   1.256       .  A
C1265      C1649   1.474       .  S
C1266      O1293   1.236       .  A
C1266      C1554   1.444   1_554  S
Mg1267     O1274   2.128       .  S
Mg1267     O1275   2.160       .  S
Mg1267     O1268   2.327       .  S
Mg1267     O1269   2.377       .  S
Mg1267     O1872   2.350   1_545  S
O1269      C1273   1.283   1_545  A
O1270     Mg1853   2.218       .  S
O1271      C1290   1.280       .  A
O1272      C1292   1.292       .  A
O1272     Mg1288   2.616       .  S
C1273      H1836   1.081       .  S
O1274     Mg1288   2.114       .  S
O1274      C1285   1.242       .  S
O1275     Mg1870   2.221   1_545  S
O1276     Mg1288   2.361       .  S
Mg1277     O1846   2.218   1_545  S
Mg1277     O1293   2.187       .  S
O1278     Mg1294   2.327       .  S
H1279      C1284   1.081       .  S
O1280     Mg1288   2.161       .  S
O1280      C1283   1.241       .  S
H1281      C1283   1.081       .  S
H1282      C1285   1.082       .  S
O1287     Mg1870   2.316   1_545  S
C1290      O1295   1.258       .  A
C1290      C1450   1.463       .  S
O1291      C1292   1.241       .  A
C1292      C1676   1.528       .  S
Mg1294     O1828   2.099       .  S
Mg1294     O1851   2.221       .  S
Mg1294     O1863   2.316       .  S
O1296     Mg1843   2.350       .  S
O1297     Mg1299   2.076       .  S
O1297     Mg1305   2.108       .  S
O1297      C1332   1.228       .  S
C1298      O1311   1.232       .  S
C1298      H1337   1.081       .  S
C1298      O1335   1.269       .  A
Mg1299     O1328   2.021       .  S
Mg1299     O1343   2.264       .  S
Mg1299     O1339   2.126       .  S
Mg1299     O1310   2.345       .  S
O1300     Mg1918   2.095   1_545  S
O1300     Mg1325   2.104       .  S
O1300      C1321   1.242   1_545  S
O1301      C1332   1.263       .  A
O1301     Mg1325   2.311       .  S
C1302      O1304   1.294       .  A
C1302      O1316   1.279       .  A
O1303      C1331   1.276       .  A
O1303     Mg1305   2.317       .  S
O1304     Mg1336   2.399       .  S
Mg1305     O1311   2.173       .  S
Mg1305     O1319   2.325       .  S
Mg1305     O1307   2.339       .  S
C1306      O1344   1.263       .  A
C1306      O1312   1.242       .  A
C1306      C1530   1.457       .  S
O1307      C1314   1.282       .  A
H1308      C1897   1.081       .  S
C1309      O1323   1.242       .  S
C1309      H1334   1.081       .  S
C1309      O1324   1.284       .  A
O1310      C1333   1.280       .  A
O1311     Mg1325   2.130       .  S
O1312     Mg1342   2.165       .  S
C1313      O1326   1.269       .  A
C1313      O1318   1.257       .  A
C1314      O1341   1.234       .  A
C1314      C1602   1.447       .  S
Mg1315     O1322   2.134       .  S
Mg1315     O1323   2.159       .  S
Mg1315     O1316   2.319       .  S
Mg1315     O1317   2.373       .  S
Mg1315     O1920   2.353   1_545  S
O1317      C1321   1.282   1_545  A
O1318     Mg1901   2.223       .  S
O1319      C1338   1.281       .  A
O1320      C1340   1.293       .  A
O1320     Mg1336   2.628       .  S
C1321      H1884   1.081       .  S
O1322     Mg1336   2.113       .  S
O1322      C1333   1.242       .  S
O1323     Mg1918   2.223   1_545  S
O1324     Mg1336   2.363       .  S
Mg1325     O1894   2.223   1_545  S
Mg1325     O1341   2.188       .  S
O1326     Mg1342   2.326       .  S
H1327      C1332   1.081       .  S
O1328     Mg1336   2.162       .  S
O1328      C1331   1.241       .  S
H1329      C1331   1.081       .  S
H1330      C1333   1.082       .  S
O1335     Mg1918   2.316   1_545  S
C1338      O1343   1.259       .  A
C1338      C1402   1.466       .  S
O1339      C1340   1.241       .  A
Mg1342     O1876   2.095       .  S
Mg1342     O1899   2.223       .  S
Mg1342     O1911   2.316       .  S
O1344     Mg1891   2.353       .  S
O1345     Mg1347   2.049       .  S
O1345     Mg1353   2.086       .  S
O1345      C1380   1.226       .  S
C1346      O1359   1.234       .  S
C1346      H1385   1.081       .  S
C1346      O1383   1.271       .  A
Mg1347     O1376   2.021       .  S
Mg1347     O1391   2.287       .  S
Mg1347     O1387   2.155       .  S
Mg1347     O1358   2.362       .  S
O1348     Mg1390   2.076       .  S
O1348     Mg1373   2.104       .  S
O1348      C1369   1.241       .  S
O1349      C1380   1.262       .  A
O1349     Mg1373   2.343       .  S
C1350      O1352   1.294       .  A
C1350      O1364   1.284       .  A
C1350      C1398   1.520       .  S
O1351      C1379   1.276       .  A
O1351     Mg1353   2.320       .  S
O1352     Mg1384   2.403       .  S
Mg1353     O1359   2.154       .  S
Mg1353     O1367   2.269       .  S
Mg1353     O1355   2.400       .  S
C1354      O1392   1.269       .  A
C1354      O1360   1.246       .  A
O1355      C1362   1.278       .  A
H1356      C1369   1.081       .  S
C1357      O1371   1.244       .  S
C1357      H1382   1.081       .  S
C1357      O1372   1.285       .  A
O1358      C1381   1.279       .  A
O1359     Mg1373   2.070       .  S
O1360     Mg1390   2.183       .  S
C1361      O1374   1.273       .  A
C1361      O1366   1.254       .  A
C1361      C1505   1.484       .  S
C1362      O1389   1.233       .  A
C1362      C1650   1.474       .  S
Mg1363     O1370   2.141       .  S
Mg1363     O1371   2.155       .  S
Mg1363     O1364   2.350       .  S
Mg1363     O1365   2.366       .  S
Mg1363     O1392   2.355       .  S
O1365      C1369   1.280       .  A
O1366     Mg1373   2.231       .  S
O1367      C1386   1.280       .  A
O1368      C1388   1.288       .  A
O1368     Mg1384   2.640       .  S
O1370     Mg1384   2.103       .  S
O1370      C1381   1.240       .  S
O1371     Mg1390   2.235       .  S
O1372     Mg1384   2.364       .  S
Mg1373     O1389   2.246       .  S
O1374     Mg1390   2.378       .  S
H1375      C1380   1.081       .  S
O1376     Mg1384   2.191       .  S
O1376      C1379   1.240       .  S
H1377      C1379   1.081       .  S
H1378      C1381   1.082       .  S
O1383     Mg1390   2.321       .  S
C1386      O1391   1.266       .  A
O1387      C1388   1.241       .  A
C1388      C1532   1.543       .  S
O1393     Mg1395   2.078       .  S
O1393     Mg1401   2.117       .  S
O1393      C1428   1.229       .  S
C1394      O1407   1.231       .  S
C1394      H1433   1.081       .  S
C1394      O1431   1.267       .  A
Mg1395     O1424   2.029       .  S
Mg1395     O1439   2.265       .  S
Mg1395     O1435   2.117       .  S
Mg1395     O1406   2.345       .  S
O1396     Mg1438   2.114       .  S
O1396     Mg1421   2.132       .  S
O1396      C1417   1.240       .  S
O1397      C1428   1.263       .  A
O1397     Mg1421   2.302       .  S
C1398      O1400   1.294       .  A
C1398      O1412   1.280       .  A
O1399      C1427   1.275       .  A
O1399     Mg1401   2.316       .  S
O1400     Mg1432   2.409       .  S
Mg1401     O1407   2.144       .  S
Mg1401     O1415   2.293       .  S
Mg1401     O1403   2.324       .  S
C1402      O1440   1.263       .  A
C1402      O1408   1.247       .  A
O1403      C1410   1.281       .  A
H1404      C1417   1.081       .  S
C1405      O1419   1.242       .  S
C1405      H1430   1.081       .  S
C1405      O1420   1.284       .  A
O1406      C1429   1.280       .  A
O1407     Mg1421   2.132       .  S
O1408     Mg1438   2.141       .  S
C1409      O1422   1.270       .  A
C1409      O1414   1.252       .  A
C1409      C1601   1.476       .  S
C1410      O1437   1.235       .  A
C1410      C1698   1.438       .  S
Mg1411     O1418   2.138       .  S
Mg1411     O1419   2.171       .  S
Mg1411     O1412   2.331       .  S
Mg1411     O1413   2.374       .  S
Mg1411     O1440   2.340       .  S
O1413      C1417   1.281       .  A
O1414     Mg1421   2.178       .  S
O1415      C1434   1.277       .  A
O1416      C1436   1.295       .  A
O1416     Mg1432   2.627       .  S
O1418     Mg1432   2.115       .  S
O1418      C1429   1.242       .  S
O1419     Mg1438   2.240       .  S
O1420     Mg1432   2.369       .  S
Mg1421     O1437   2.186       .  S
O1422     Mg1438   2.335       .  S
H1423      C1428   1.081       .  S
O1424     Mg1432   2.170       .  S
O1424      C1427   1.240       .  S
H1425      C1427   1.081       .  S
H1426      C1429   1.082       .  S
O1431     Mg1438   2.309       .  S
C1434      O1439   1.260       .  A
O1435      C1436   1.241       .  A
C1436      C1628   1.530       .  S
O1441     Mg1443   2.091       .  S
O1441     Mg1449   2.135       .  S
O1441      C1476   1.227       .  S
C1442      O1455   1.231       .  S
C1442      H1481   1.081       .  S
C1442      O1479   1.261       .  A
Mg1443     O1472   2.016       .  S
Mg1443     O1487   2.271       .  S
Mg1443     O1483   2.140       .  S
Mg1443     O1454   2.374       .  S
O1444     Mg1486   2.166   1_455  S
O1444      C1465   1.236   1_455  S
O1445      C1476   1.258       .  A
O1445     Mg1469   2.260       .  S
C1446      O1448   1.295       .  A
C1446      O1460   1.279       .  A
C1446      C1494   1.519       .  S
O1447      C1475   1.272       .  A
O1447     Mg1449   2.318       .  S
O1448     Mg1480   2.414   1_554  S
Mg1449     O1455   2.115       .  S
Mg1449     O1463   2.319       .  S
Mg1449     O1451   2.427       .  S
C1450      O1488   1.267       .  A
C1450      O1456   1.251   1_554  A
O1451      C1458   1.292       .  A
H1452      C1465   1.081       .  S
C1453      O1467   1.239   1_554  S
C1453      H1478   1.081       .  S
C1453      O1468   1.280       .  A
O1454      C1477   1.286       .  A
O1455     Mg1469   2.169       .  S
O1456     Mg1486   2.153       .  S
C1457      O1470   1.279       .  A
C1457      O1462   1.249       .  A
C1457      C1553   1.473       .  S
C1458      O1485   1.248       .  A
Mg1459     O1466   2.152       .  S
Mg1459     O1467   2.179       .  S
Mg1459     O1460   2.322   1_556  S
Mg1459     O1461   2.328       .  S
O1463      C1482   1.287       .  A
O1464      C1484   1.282       .  A
O1464     Mg1480   2.600       .  S
O1466     Mg1480   2.113       .  S
O1466      C1477   1.246       .  S
O1468     Mg1480   2.353   1_554  S
Mg1469     O1485   2.061       .  S
O1470     Mg1486   2.342       .  S
H1471      C1476   1.081       .  S
O1472     Mg1480   2.204       .  S
O1472      C1475   1.236       .  S
H1473      C1475   1.081       .  S
H1474      C1477   1.082       .  S
C1482      O1487   1.263       .  A
C1482      C1690   1.463       .  S
O1483      C1484   1.240       .  A
C1484      C1580   1.530       .  S
O1489     Mg1491   2.050       .  S
O1489     Mg1497   2.086       .  S
O1489      C1524   1.226       .  S
C1490      O1503   1.234       .  S
C1490      H1529   1.081       .  S
C1490      O1527   1.271       .  A
Mg1491     O1520   2.020       .  S
Mg1491     O1535   2.286       .  S
Mg1491     O1531   2.154       .  S
Mg1491     O1502   2.362       .  S
O1492     Mg1534   2.076   1_455  S
O1492      C1513   1.240   1_455  S
O1493      C1524   1.262       .  A
O1493     Mg1517   2.342       .  S
C1494      O1496   1.294       .  A
C1494      O1508   1.285       .  A
O1495      C1523   1.277       .  A
O1495     Mg1497   2.321       .  S
O1496     Mg1528   2.403       .  S
Mg1497     O1503   2.153       .  S
Mg1497     O1511   2.271       .  S
Mg1497     O1499   2.403       .  S
C1498      O1536   1.270       .  A
C1498      O1504   1.246       .  A
C1498      C1674   1.457       .  S
O1499      C1506   1.279       .  A
H1500      C1513   1.081       .  S
C1501      O1515   1.244       .  S
C1501      H1526   1.081       .  S
C1501      O1516   1.285       .  A
O1502      C1525   1.279       .  A
O1503     Mg1517   2.070       .  S
O1504     Mg1534   2.183       .  S
C1505      O1518   1.273       .  A
C1505      O1510   1.254       .  A
C1506      O1533   1.233       .  A
Mg1507     O1514   2.142       .  S
Mg1507     O1515   2.155       .  S
Mg1507     O1508   2.347       .  S
Mg1507     O1509   2.365       .  S
O1511      C1530   1.280       .  A
O1512      C1532   1.288       .  A
O1512     Mg1528   2.640       .  S
O1514     Mg1528   2.105       .  S
O1514      C1525   1.240       .  S
O1516     Mg1528   2.365       .  S
Mg1517     O1533   2.244       .  S
O1518     Mg1534   2.377       .  S
H1519      C1524   1.081       .  S
O1520     Mg1528   2.191       .  S
O1520      C1523   1.241       .  S
H1521      C1523   1.081       .  S
H1522      C1525   1.082       .  S
C1530      O1535   1.265       .  A
O1531      C1532   1.241       .  A
O1537     Mg1539   2.083       .  S
O1537     Mg1545   2.142       .  S
O1537      C1572   1.228       .  S
C1538      O1551   1.230       .  S
C1538      H1577   1.081       .  S
C1538      O2151   1.258       .  A
Mg1539     O1568   2.023       .  S
Mg1539     O1583   2.291       .  S
Mg1539     O1579   2.141       .  S
Mg1539     O1550   2.378       .  S
O1540     Mg1582   2.167       .  S
O1540     Mg1565   2.040       .  S
O1540      C1561   1.235       .  S
O1541      C2148   1.258       .  A
O1541     Mg1565   2.257   1_565  S
C1542      O1544   1.295       .  A
C1542      O1556   1.278       .  A
C1542      C1590   1.513       .  S
O1543      C1571   1.269       .  A
O1543     Mg1545   2.311       .  S
O1544     Mg1576   2.416       .  S
Mg1545     O1551   2.094       .  S
Mg1545     O1559   2.276       .  S
Mg1545     O1547   2.364       .  S
C1546      O1584   1.271       .  A
C1546      O1552   1.245       .  A
O1547      C2130   1.286       .  A
H1548      C1561   1.081       .  S
C1549      O1563   1.240       .  S
C1549      H1574   1.081       .  S
C1549      O1564   1.281       .  A
O1550      C1573   1.286       .  A
O1551     Mg2141   2.176       .  S
O1552     Mg1582   2.145       .  S
C1553      O1566   1.277       .  A
C1553      O1558   1.246       .  A
C1554      O2123   1.286   1_545  A
C1554      O1581   1.243       .  A
Mg1555     O1562   2.169       .  S
Mg1555     O1563   2.163       .  S
Mg1555     O1556   2.300       .  S
Mg1555     O2133   2.319       .  S
Mg1555     O2160   2.363       .  S
O1557      C1561   1.270       .  A
O1557     Mg2131   2.319       .  S
O1558     Mg1565   2.168       .  S
O1559      C1578   1.282       .  A
O1560      C1580   1.286       .  A
O1560     Mg1576   2.604       .  S
O1562     Mg1576   2.121       .  S
O1562      C1573   1.245       .  S
O1563     Mg2158   2.222       .  S
O1564     Mg1576   2.355       .  S
Mg1565     O2127   2.176   1_545  S
Mg1565     O1581   2.021       .  S
O1566     Mg1582   2.343       .  S
H1567      C1572   1.081       .  S
O1568     Mg1576   2.198       .  S
O1568      C1571   1.234       .  S
H1569      C1571   1.081       .  S
H1570      C1573   1.082       .  S
C1572      O2117   1.258       .  A
O1575      C2114   1.258   1_545  A
O1575     Mg1582   2.250       .  S
C1578      O1583   1.268       .  A
C1578      C1642   1.456       .  S
O1579      C1580   1.240       .  A
Mg1582     O2139   2.222   1_545  S
O1584     Mg2131   2.363       .  S
O1585     Mg1587   2.068       .  S
O1585     Mg1593   2.149       .  S
O1585      C1620   1.229       .  S
C1586      O1599   1.231       .  S
C1586      H1625   1.081       .  S
C1586      O2199   1.258       .  A
Mg1587     O1616   2.023       .  S
Mg1587     O1631   2.299       .  S
Mg1587     O1627   2.125       .  S
Mg1587     O1598   2.388       .  S
O1588     Mg1630   2.183       .  S
O1588     Mg1613   2.027       .  S
O1588      C1609   1.234       .  S
O1589      C2196   1.258       .  A
O1589     Mg1613   2.247   1_565  S
C1590      O1592   1.294       .  A
C1590      O1604   1.283       .  A
O1591      C1619   1.266       .  A
O1591     Mg1593   2.304       .  S
O1592     Mg1624   2.407       .  S
Mg1593     O1599   2.077       .  S
Mg1593     O1607   2.259       .  S
Mg1593     O1595   2.354       .  S
C1594      O1632   1.278       .  A
C1594      O1600   1.250       .  A
C1594      C1722   1.467       .  S
O1595      C2178   1.284       .  A
H1596      C1609   1.081       .  S
C1597      O1611   1.240       .  S
C1597      H1622   1.081       .  S
C1597      O1612   1.281       .  A
O1598      C1621   1.287       .  A
O1599     Mg2189   2.178       .  S
O1600     Mg1630   2.174       .  S
C1601      O1614   1.279       .  A
C1601      O1606   1.238       .  A
C1602      O2171   1.284   1_545  A
C1602      O1629   1.241       .  A
Mg1603     O1610   2.187       .  S
Mg1603     O1611   2.156       .  S
Mg1603     O1604   2.323       .  S
Mg1603     O2181   2.306       .  S
Mg1603     O2208   2.382       .  S
O1605      C1609   1.268       .  A
O1605     Mg2179   2.306       .  S
O1606     Mg1613   2.114       .  S
O1607      C1626   1.281       .  A
O1608      C1628   1.284       .  A
O1608     Mg1624   2.613       .  S
O1610     Mg1624   2.118       .  S
O1610      C1621   1.245       .  S
O1611     Mg2206   2.222       .  S
O1612     Mg1624   2.356       .  S
Mg1613     O2175   2.178   1_545  S
Mg1613     O1629   2.013       .  S
O1614     Mg1630   2.393       .  S
H1615      C1620   1.081       .  S
O1616     Mg1624   2.200       .  S
O1616      C1619   1.232       .  S
H1617      C1619   1.081       .  S
H1618      C1621   1.082       .  S
C1620      O2165   1.258       .  A
O1623      C2162   1.258   1_545  A
O1623     Mg1630   2.240       .  S
C1626      O1631   1.270       .  A
O1627      C1628   1.239       .  A
Mg1630     O2187   2.222   1_545  S
O1632     Mg2179   2.382       .  S
O1633     Mg1635   2.089       .  S
O1633     Mg1641   2.201       .  S
O1633      C1668   1.236       .  S
C1634      O1647   1.232       .  S
C1634      H1673   1.081       .  S
C1634      O1671   1.257       .  A
Mg1635     O1664   2.038       .  S
Mg1635     O1679   2.317       .  S
Mg1635     O1675   2.141       .  S
Mg1635     O1646   2.407       .  S
O1636     Mg1678   2.117       .  S
O1636     Mg1661   2.011       .  S
O1636      C1657   1.235       .  S
O1637      C1668   1.263       .  A
O1637     Mg1661   2.210       .  S
C1638      O1640   1.295       .  A
C1638      O1652   1.280       .  A
C1638      C1686   1.513       .  S
O1639      C1667   1.261       .  A
O1639     Mg1641   2.293       .  S
O1640     Mg1672   2.415   1_556  S
Mg1641     O1647   2.079       .  S
Mg1641     O1655   2.250       .  S
Mg1641     O1643   2.351       .  S
C1642      O1680   1.276       .  A
C1642      O1648   1.251   1_556  A
O1643      C1650   1.272       .  A
H1644      C1657   1.081       .  S
C1645      O1659   1.241       .  S
C1645      H1670   1.081       .  S
C1645      O1660   1.282       .  A
O1646      C1669   1.287       .  A
O1647     Mg1661   2.194       .  S
O1648     Mg1678   2.183       .  S
C1649      O1662   1.286       .  A
C1649      O1654   1.261       .  A
C1650      O1677   1.244       .  A
Mg1651     O1658   2.187   1_556  S
Mg1651     O1659   2.160       .  S
Mg1651     O1652   2.312       .  S
Mg1651     O1653   2.303   1_556  S
Mg1651     O1680   2.361       .  S
O1653      C1657   1.268       .  A
O1654     Mg1661   2.234       .  S
O1655      C1674   1.282       .  A
O1656      C1676   1.284       .  A
O1656     Mg1672   2.600       .  S
O1658     Mg1672   2.113       .  S
O1658      C1669   1.244       .  S
O1659     Mg1678   2.225   1_556  S
O1660     Mg1672   2.355   1_556  S
Mg1661     O1677   2.083       .  S
O1662     Mg1678   2.357       .  S
H1663      C1668   1.081       .  S
O1664     Mg1672   2.201       .  S
O1664      C1667   1.228       .  S
H1665      C1667   1.081       .  S
H1666      C1669   1.082       .  S
O1671     Mg1678   2.234       .  S
C1674      O1679   1.274       .  A
O1675      C1676   1.240       .  A
O1681     Mg1683   2.075       .  S
O1681     Mg1689   2.140       .  S
O1681      C1716   1.228       .  S
C1682      O1695   1.231       .  S
C1682      H1721   1.081       .  S
C1682      O1719   1.261       .  A
Mg1683     O1712   2.026       .  S
Mg1683     O1727   2.296       .  S
Mg1683     O1723   2.103       .  S
Mg1683     O1694   2.370       .  S
O1684     Mg1726   2.153       .  S
O1684     Mg1709   2.039       .  S
O1684      C1705   1.237       .  S
O1685      C1716   1.259       .  A
O1685     Mg1709   2.260       .  S
C1686      O1688   1.293       .  A
C1686      O1700   1.281       .  A
O1687      C1715   1.268       .  A
O1687     Mg1689   2.305       .  S
O1688     Mg1720   2.404       .  S
Mg1689     O1695   2.118       .  S
Mg1689     O1703   2.308       .  S
Mg1689     O1691   2.357       .  S
C1690      O1728   1.270       .  A
C1690      O1696   1.242       .  A
O1691      C1698   1.286       .  A
H1692      C1705   1.081       .  S
C1693      O1707   1.240       .  S
C1693      H1718   1.081       .  S
C1693      O1708   1.281       .  A
O1694      C1717   1.285       .  A
O1695     Mg1709   2.177       .  S
O1696     Mg1726   2.145       .  S
C1697      O1710   1.274       .  A
C1697      O1702   1.252       .  A
C1698      O1725   1.243       .  A
Mg1699     O1706   2.162       .  S
Mg1699     O1707   2.164       .  S
Mg1699     O1700   2.319       .  S
Mg1699     O1701   2.331       .  S
Mg1699     O1728   2.372       .  S
O1701      C1705   1.272       .  A
O1702     Mg1709   2.193       .  S
O1703      C1722   1.284       .  A
O1704      C1724   1.285       .  A
O1704     Mg1720   2.591       .  S
O1706     Mg1720   2.119       .  S
O1706      C1717   1.246       .  S
O1707     Mg1726   2.230       .  S
O1708     Mg1720   2.356       .  S
Mg1709     O1725   2.023       .  S
O1710     Mg1726   2.363       .  S
H1711      C1716   1.081       .  S
O1712     Mg1720   2.198       .  S
O1712      C1715   1.234       .  S
H1713      C1715   1.081       .  S
H1714      C1717   1.082       .  S
O1719     Mg1726   2.266       .  S
C1722      O1727   1.268       .  A
O1723      C1724   1.239       .  A
O1729     Mg1731   2.079       .  S
O1729     Mg1737   2.123       .  S
O1729      C1764   1.234       .  S
C1730      O1743   1.224       .  S
C1730      H1769   1.082       .  S
Mg1731     O1760   2.043       .  S
Mg1731     O1775   2.275       .  S
Mg1731     O1771   2.096       .  S
Mg1731     O1742   2.340       .  S
O1732     Mg1774   2.119       .  S
O1732     Mg1757   2.050       .  S
O1732      C1753   1.236       .  S
O1733     Mg1757   2.312       .  S
C1734      O1736   1.294       .  A
C1734      O1748   1.281       .  A
C1734      C1782   1.517       .  S
O1735      C1763   1.273       .  A
O1735     Mg1737   2.313       .  S
O1736     Mg1768   2.414       .  S
Mg1737     O1743   2.061       .  S
Mg1737     O1751   2.319       .  S
Mg1737     O1739   2.378       .  S
C1738      O1776   1.271       .  A
C1738      O1744   1.256       .  A
C1738      C2010   1.458       .  S
H1740      C1753   1.080       .  S
C1741      O1755   1.242       .  S
C1741      H1766   1.081       .  S
C1741      O1756   1.283       .  A
O1742      C1765   1.280       .  A
O1744     Mg1774   2.178       .  S
C1745      O1758   1.296       .  A
C1745      O1750   1.266       .  A
C1745      C2273   1.483       .  S
C1746      O1773   1.254       .  A
C1746      C2034   1.469       .  S
Mg1747     O1754   2.141   1_455  S
Mg1747     O1755   2.184   1_455  S
Mg1747     O1748   2.322   1_455  S
O1749      C1753   1.271       .  A
O1750     Mg1757   2.215       .  S
O1751      C1770   1.286       .  A
O1752      C1772   1.293       .  A
O1752     Mg1768   2.608       .  S
O1754     Mg1768   2.113       .  S
O1754      C1765   1.243       .  S
O1756     Mg1768   2.362       .  S
Mg1757     O1773   2.199       .  S
O1758     Mg1774   2.426       .  S
H1759      C1764   1.081       .  S
O1760     Mg1768   2.187       .  S
O1760      C1763   1.238       .  S
H1761      C1763   1.081       .  S
H1762      C1765   1.082       .  S
O1767     Mg1774   2.306       .  S
C1770      O1775   1.262       .  A
C1770      C2122   1.465       .  S
O1771      C1772   1.238       .  A
C1772      C2300   1.518       .  S
O1777     Mg1779   2.088       .  S
O1777     Mg1785   2.202       .  S
O1777      C1812   1.236       .  S
C1778      O1791   1.232       .  S
C1778      H1817   1.081       .  S
Mg1779     O1808   2.037       .  S
Mg1779     O1823   2.313       .  S
Mg1779     O1819   2.142       .  S
Mg1779     O1790   2.405       .  S
O1780     Mg1822   2.115       .  S
O1780     Mg1805   2.012       .  S
O1780      C1801   1.236       .  S
O1781     Mg1805   2.210       .  S
C1782      O1784   1.296       .  A
C1782      O1796   1.281       .  A
O1783      C1811   1.261       .  A
O1783     Mg1785   2.293       .  S
O1784     Mg1816   2.419       .  S
Mg1785     O1791   2.079       .  S
Mg1785     O1799   2.247       .  S
Mg1785     O1787   2.353       .  S
C1786      O1824   1.276       .  A
C1786      O1792   1.250       .  A
C1786      C2202   1.453       .  S
H1788      C1801   1.081       .  S
C1789      O1803   1.241       .  S
C1789      H1814   1.081       .  S
C1789      O1804   1.282       .  A
O1790      C1813   1.287       .  A
O1792     Mg1822   2.187       .  S
C1793      O1806   1.286       .  A
C1793      O1798   1.261       .  A
C1793      C1889   1.476       .  S
C1794      O1821   1.243       .  A
C1794      C2082   1.474       .  S
Mg1795     O1802   2.185   1_455  S
Mg1795     O1803   2.159   1_455  S
Mg1795     O1796   2.325   1_455  S
O1797      C1801   1.269       .  A
O1798     Mg1805   2.237       .  S
O1799      C1818   1.282       .  A
O1800      C1820   1.284       .  A
O1800     Mg1816   2.609       .  S
O1802     Mg1816   2.109       .  S
O1802      C1813   1.244       .  S
O1804     Mg1816   2.355       .  S
Mg1805     O1821   2.082       .  S
O1806     Mg1822   2.359       .  S
H1807      C1812   1.081       .  S
O1808     Mg1816   2.201       .  S
O1808      C1811   1.228       .  S
H1809      C1811   1.081       .  S
H1810      C1813   1.082       .  S
O1815     Mg1822   2.236       .  S
C1818      O1823   1.274       .  A
C1818      C1930   1.455       .  S
O1819      C1820   1.240       .  A
C1820      C1916   1.532       .  S
O1825     Mg1827   2.081       .  S
O1825     Mg1833   2.113       .  S
O1825      C1860   1.229       .  S
C1826      O1839   1.233       .  S
C1826      H1865   1.081       .  S
C1826      O1863   1.269       .  A
Mg1827     O1856   2.022       .  S
Mg1827     O1871   2.258       .  S
Mg1827     O1867   2.125       .  S
Mg1827     O1838   2.343       .  S
O1828     Mg1853   2.116       .  S
O1828      C1849   1.242       .  S
O1829      C1860   1.264       .  A
O1829     Mg1853   2.310       .  S
C1830      O1832   1.293       .  A
C1830      O1844   1.280       .  A
C1830      C1878   1.515       .  S
O1831      C1859   1.276       .  A
O1831     Mg1833   2.317       .  S
O1832     Mg1864   2.393       .  S
Mg1833     O1839   2.164       .  S
Mg1833     O1847   2.327       .  S
Mg1833     O1835   2.337       .  S
C1834      O1872   1.263       .  A
C1834      O1840   1.243       .  A
C1834      C1962   1.457       .  S
O1835      C1842   1.282       .  A
C1837      O1851   1.242       .  S
C1837      H1862   1.081       .  S
C1837      O1852   1.283       .  A
O1838      C1861   1.280       .  A
O1839     Mg1853   2.130       .  S
O1840     Mg1870   2.167       .  S
C1841      O1854   1.268       .  A
C1841      O1846   1.256       .  A
C1841      C2225   1.474       .  S
C1842      O1869   1.236       .  A
C1842      C2130   1.444   1_554  S
Mg1843     O1850   2.128       .  S
Mg1843     O1851   2.160       .  S
Mg1843     O1844   2.327       .  S
Mg1843     O1845   2.377       .  S
O1845      C1849   1.283       .  A
O1847      C1866   1.280       .  A
O1848      C1868   1.292       .  A
O1848     Mg1864   2.616       .  S
O1850     Mg1864   2.114       .  S
O1850      C1861   1.242       .  S
O1852     Mg1864   2.361       .  S
Mg1853     O1869   2.187       .  S
O1854     Mg1870   2.327       .  S
H1855      C1860   1.081       .  S
O1856     Mg1864   2.161       .  S
O1856      C1859   1.241       .  S
H1857      C1859   1.081       .  S
H1858      C1861   1.082       .  S
C1866      O1871   1.258       .  A
C1866      C2026   1.463       .  S
O1867      C1868   1.241       .  A
C1868      C2252   1.528       .  S
O1873     Mg1875   2.076       .  S
O1873     Mg1881   2.108       .  S
O1873      C1908   1.228       .  S
C1874      O1887   1.232       .  S
C1874      H1913   1.081       .  S
C1874      O1911   1.269       .  A
Mg1875     O1904   2.021       .  S
Mg1875     O1919   2.264       .  S
Mg1875     O1915   2.126       .  S
Mg1875     O1886   2.345       .  S
O1876     Mg1901   2.104       .  S
O1876      C1897   1.242       .  S
O1877      C1908   1.263       .  A
O1877     Mg1901   2.311       .  S
C1878      O1880   1.294       .  A
C1878      O1892   1.279       .  A
O1879      C1907   1.276       .  A
O1879     Mg1881   2.317       .  S
O1880     Mg1912   2.399       .  S
Mg1881     O1887   2.173       .  S
Mg1881     O1895   2.325       .  S
Mg1881     O1883   2.339       .  S
C1882      O1920   1.263       .  A
C1882      O1888   1.242       .  A
C1882      C2106   1.457       .  S
O1883      C1890   1.282       .  A
C1885      O1899   1.242       .  S
C1885      H1910   1.081       .  S
C1885      O1900   1.284       .  A
O1886      C1909   1.280       .  A
O1887     Mg1901   2.130       .  S
O1888     Mg1918   2.165       .  S
C1889      O1902   1.269       .  A
C1889      O1894   1.257       .  A
C1890      O1917   1.234       .  A
C1890      C2178   1.447       .  S
Mg1891     O1898   2.134       .  S
Mg1891     O1899   2.159       .  S
Mg1891     O1892   2.319       .  S
Mg1891     O1893   2.373       .  S
O1893      C1897   1.282       .  A
O1895      C1914   1.281       .  A
O1896      C1916   1.293       .  A
O1896     Mg1912   2.628       .  S
O1898     Mg1912   2.113       .  S
O1898      C1909   1.242       .  S
O1900     Mg1912   2.363       .  S
Mg1901     O1917   2.188       .  S
O1902     Mg1918   2.326       .  S
H1903      C1908   1.081       .  S
O1904     Mg1912   2.162       .  S
O1904      C1907   1.241       .  S
H1905      C1907   1.081       .  S
H1906      C1909   1.082       .  S
C1914      O1919   1.259       .  A
C1914      C1978   1.466       .  S
O1915      C1916   1.241       .  A
O1921     Mg1923   2.049       .  S
O1921     Mg1929   2.086       .  S
O1921      C1956   1.226       .  S
C1922      O1935   1.234       .  S
C1922      H1961   1.081       .  S
C1922      O1959   1.271       .  A
Mg1923     O1952   2.021       .  S
Mg1923     O1967   2.287       .  S
Mg1923     O1963   2.155       .  S
Mg1923     O1934   2.362       .  S
O1924     Mg1966   2.076       .  S
O1924     Mg1949   2.104       .  S
O1924      C1945   1.241       .  S
O1925      C1956   1.262       .  A
O1925     Mg1949   2.343       .  S
C1926      O1928   1.294       .  A
C1926      O1940   1.284       .  A
C1926      C1974   1.520       .  S
O1927      C1955   1.276       .  A
O1927     Mg1929   2.320       .  S
O1928     Mg1960   2.403       .  S
Mg1929     O1935   2.154       .  S
Mg1929     O1943   2.269       .  S
Mg1929     O1931   2.400       .  S
C1930      O1968   1.269       .  A
C1930      O1936   1.246       .  A
O1931      C1938   1.278       .  A
H1932      C1945   1.081       .  S
C1933      O1947   1.244       .  S
C1933      H1958   1.081       .  S
C1933      O1948   1.285       .  A
O1934      C1957   1.279       .  A
O1935     Mg1949   2.070       .  S
O1936     Mg1966   2.183       .  S
C1937      O1950   1.273       .  A
C1937      O1942   1.254       .  A
C1937      C2081   1.484       .  S
C1938      O1965   1.233       .  A
C1938      C2226   1.474       .  S
Mg1939     O1946   2.141       .  S
Mg1939     O1947   2.155       .  S
Mg1939     O1940   2.350       .  S
Mg1939     O1941   2.366       .  S
Mg1939     O1968   2.355       .  S
O1941      C1945   1.280       .  A
O1942     Mg1949   2.231       .  S
O1943      C1962   1.280       .  A
O1944      C1964   1.288       .  A
O1944     Mg1960   2.640       .  S
O1946     Mg1960   2.103       .  S
O1946      C1957   1.240       .  S
O1947     Mg1966   2.235       .  S
O1948     Mg1960   2.364       .  S
Mg1949     O1965   2.246       .  S
O1950     Mg1966   2.378       .  S
H1951      C1956   1.081       .  S
O1952     Mg1960   2.191       .  S
O1952      C1955   1.240       .  S
H1953      C1955   1.081       .  S
H1954      C1957   1.082       .  S
O1959     Mg1966   2.321       .  S
C1962      O1967   1.266       .  A
O1963      C1964   1.241       .  A
C1964      C2108   1.543       .  S
O1969     Mg1971   2.078       .  S
O1969     Mg1977   2.117       .  S
O1969      C2004   1.229       .  S
C1970      O1983   1.231       .  S
C1970      H2009   1.081       .  S
C1970      O2007   1.267       .  A
Mg1971     O2000   2.029       .  S
Mg1971     O2015   2.265       .  S
Mg1971     O2011   2.117       .  S
Mg1971     O1982   2.345       .  S
O1972     Mg2014   2.114       .  S
O1972     Mg1997   2.132       .  S
O1972      C1993   1.240       .  S
O1973      C2004   1.263       .  A
O1973     Mg1997   2.302       .  S
C1974      O1976   1.294       .  A
C1974      O1988   1.280       .  A
O1975      C2003   1.275       .  A
O1975     Mg1977   2.316       .  S
O1976     Mg2008   2.409       .  S
Mg1977     O1983   2.144       .  S
Mg1977     O1991   2.293       .  S
Mg1977     O1979   2.324       .  S
C1978      O2016   1.263       .  A
C1978      O1984   1.247       .  A
O1979      C1986   1.281       .  A
H1980      C1993   1.081       .  S
C1981      O1995   1.242       .  S
C1981      H2006   1.081       .  S
C1981      O1996   1.284       .  A
O1982      C2005   1.280       .  A
O1983     Mg1997   2.132       .  S
O1984     Mg2014   2.141       .  S
C1985      O1998   1.270       .  A
C1985      O1990   1.252       .  A
C1985      C2177   1.476       .  S
C1986      O2013   1.235       .  A
C1986      C2274   1.438       .  S
Mg1987     O1994   2.138       .  S
Mg1987     O1995   2.171       .  S
Mg1987     O1988   2.331       .  S
Mg1987     O1989   2.374       .  S
Mg1987     O2016   2.340       .  S
O1989      C1993   1.281       .  A
O1990     Mg1997   2.178       .  S
O1991      C2010   1.277       .  A
O1992      C2012   1.295       .  A
O1992     Mg2008   2.627       .  S
O1994     Mg2008   2.115       .  S
O1994      C2005   1.242       .  S
O1995     Mg2014   2.240       .  S
O1996     Mg2008   2.369       .  S
Mg1997     O2013   2.186       .  S
O1998     Mg2014   2.335       .  S
H1999      C2004   1.081       .  S
O2000     Mg2008   2.170       .  S
O2000      C2003   1.240       .  S
H2001      C2003   1.081       .  S
H2002      C2005   1.082       .  S
O2007     Mg2014   2.309       .  S
C2010      O2015   1.260       .  A
O2011      C2012   1.241       .  A
C2012      C2204   1.530       .  S
O2017     Mg2019   2.091       .  S
O2017     Mg2025   2.135       .  S
O2017      C2052   1.227       .  S
C2018      O2031   1.231       .  S
C2018      H2057   1.081       .  S
C2018      O2055   1.261       .  A
Mg2019     O2048   2.016       .  S
Mg2019     O2063   2.271       .  S
Mg2019     O2059   2.140       .  S
Mg2019     O2030   2.374       .  S
O2020     Mg2062   2.166   1_455  S
O2020      C2041   1.236   1_455  S
O2021      C2052   1.258       .  A
O2021     Mg2045   2.260       .  S
C2022      O2024   1.295       .  A
C2022      O2036   1.279       .  A
C2022      C2070   1.519       .  S
O2023      C2051   1.272       .  A
O2023     Mg2025   2.318       .  S
O2024     Mg2056   2.414   1_554  S
Mg2025     O2031   2.115       .  S
Mg2025     O2039   2.319       .  S
Mg2025     O2027   2.427       .  S
C2026      O2064   1.267       .  A
C2026      O2032   1.251   1_554  A
O2027      C2034   1.292       .  A
H2028      C2041   1.081       .  S
C2029      O2043   1.239   1_554  S
C2029      H2054   1.081       .  S
C2029      O2044   1.280       .  A
O2030      C2053   1.286       .  A
O2031     Mg2045   2.169       .  S
O2032     Mg2062   2.153       .  S
C2033      O2046   1.279       .  A
C2033      O2038   1.249       .  A
C2033      C2129   1.473       .  S
C2034      O2061   1.248       .  A
Mg2035     O2042   2.152       .  S
Mg2035     O2043   2.179       .  S
Mg2035     O2036   2.322   1_556  S
Mg2035     O2037   2.328       .  S
O2039      C2058   1.287       .  A
O2040      C2060   1.282       .  A
O2040     Mg2056   2.600       .  S
O2042     Mg2056   2.113       .  S
O2042      C2053   1.246       .  S
O2044     Mg2056   2.353   1_554  S
Mg2045     O2061   2.061       .  S
O2046     Mg2062   2.342       .  S
H2047      C2052   1.081       .  S
O2048     Mg2056   2.204       .  S
O2048      C2051   1.236       .  S
H2049      C2051   1.081       .  S
H2050      C2053   1.082       .  S
C2058      O2063   1.263       .  A
C2058      C2266   1.463       .  S
O2059      C2060   1.240       .  A
C2060      C2156   1.530       .  S
O2065     Mg2067   2.050       .  S
O2065     Mg2073   2.086       .  S
O2065      C2100   1.226       .  S
C2066      O2079   1.234       .  S
C2066      H2105   1.081       .  S
C2066      O2103   1.271       .  A
Mg2067     O2096   2.020       .  S
Mg2067     O2111   2.286       .  S
Mg2067     O2107   2.154       .  S
Mg2067     O2078   2.362       .  S
O2068     Mg2110   2.076   1_455  S
O2068      C2089   1.240   1_455  S
O2069      C2100   1.262       .  A
O2069     Mg2093   2.342       .  S
C2070      O2072   1.294       .  A
C2070      O2084   1.285       .  A
O2071      C2099   1.277       .  A
O2071     Mg2073   2.321       .  S
O2072     Mg2104   2.403       .  S
Mg2073     O2079   2.153       .  S
Mg2073     O2087   2.271       .  S
Mg2073     O2075   2.403       .  S
C2074      O2112   1.270       .  A
C2074      O2080   1.246       .  A
C2074      C2250   1.457       .  S
O2075      C2082   1.279       .  A
H2076      C2089   1.081       .  S
C2077      O2091   1.244       .  S
C2077      H2102   1.081       .  S
C2077      O2092   1.285       .  A
O2078      C2101   1.279       .  A
O2079     Mg2093   2.070       .  S
O2080     Mg2110   2.183       .  S
C2081      O2094   1.273       .  A
C2081      O2086   1.254       .  A
C2082      O2109   1.233       .  A
Mg2083     O2090   2.142       .  S
Mg2083     O2091   2.155       .  S
Mg2083     O2084   2.347       .  S
Mg2083     O2085   2.365       .  S
O2087      C2106   1.280       .  A
O2088      C2108   1.288       .  A
O2088     Mg2104   2.640       .  S
O2090     Mg2104   2.105       .  S
O2090      C2101   1.240       .  S
O2092     Mg2104   2.365       .  S
Mg2093     O2109   2.244       .  S
O2094     Mg2110   2.377       .  S
H2095      C2100   1.081       .  S
O2096     Mg2104   2.191       .  S
O2096      C2099   1.241       .  S
H2097      C2099   1.081       .  S
H2098      C2101   1.082       .  S
C2106      O2111   1.265       .  A
O2107      C2108   1.241       .  A
O2113     Mg2115   2.083       .  S
O2113     Mg2121   2.142       .  S
O2113      C2148   1.228       .  S
C2114      O2127   1.230       .  S
C2114      H2153   1.081       .  S
Mg2115     O2144   2.023       .  S
Mg2115     O2159   2.291       .  S
Mg2115     O2155   2.141       .  S
Mg2115     O2126   2.378       .  S
O2116     Mg2158   2.167       .  S
O2116     Mg2141   2.040       .  S
O2116      C2137   1.235       .  S
O2117     Mg2141   2.257       .  S
C2118      O2120   1.295       .  A
C2118      O2132   1.278       .  A
C2118      C2166   1.513       .  S
O2119      C2147   1.269       .  A
O2119     Mg2121   2.311       .  S
O2120     Mg2152   2.416       .  S
Mg2121     O2127   2.094       .  S
Mg2121     O2135   2.276       .  S
Mg2121     O2123   2.364       .  S
C2122      O2160   1.271       .  A
C2122      O2128   1.245       .  A
H2124      C2137   1.081       .  S
C2125      O2139   1.240       .  S
C2125      H2150   1.081       .  S
C2125      O2140   1.281       .  A
O2126      C2149   1.286       .  A
O2128     Mg2158   2.145       .  S
C2129      O2142   1.277       .  A
C2129      O2134   1.246       .  A
C2130      O2157   1.243       .  A
Mg2131     O2138   2.169   1_545  S
Mg2131     O2139   2.163   1_545  S
Mg2131     O2132   2.300   1_545  S
O2133      C2137   1.270       .  A
O2134     Mg2141   2.168       .  S
O2135      C2154   1.282       .  A
O2136      C2156   1.286       .  A
O2136     Mg2152   2.604       .  S
O2138     Mg2152   2.121       .  S
O2138      C2149   1.245       .  S
O2140     Mg2152   2.355       .  S
Mg2141     O2157   2.021       .  S
O2142     Mg2158   2.343       .  S
H2143      C2148   1.081       .  S
O2144     Mg2152   2.198       .  S
O2144      C2147   1.234       .  S
H2145      C2147   1.081       .  S
H2146      C2149   1.082       .  S
O2151     Mg2158   2.250       .  S
C2154      O2159   1.268       .  A
C2154      C2218   1.456       .  S
O2155      C2156   1.240       .  A
O2161     Mg2163   2.068       .  S
O2161     Mg2169   2.149       .  S
O2161      C2196   1.229       .  S
C2162      O2175   1.231       .  S
C2162      H2201   1.081       .  S
Mg2163     O2192   2.023       .  S
Mg2163     O2207   2.299       .  S
Mg2163     O2203   2.125       .  S
Mg2163     O2174   2.388       .  S
O2164     Mg2206   2.183       .  S
O2164     Mg2189   2.027       .  S
O2164      C2185   1.234       .  S
O2165     Mg2189   2.247       .  S
C2166      O2168   1.294       .  A
C2166      O2180   1.283       .  A
O2167      C2195   1.266       .  A
O2167     Mg2169   2.304       .  S
O2168     Mg2200   2.407       .  S
Mg2169     O2175   2.077       .  S
Mg2169     O2183   2.259       .  S
Mg2169     O2171   2.354       .  S
C2170      O2208   1.278       .  A
C2170      O2176   1.250       .  A
C2170      C2298   1.467       .  S
H2172      C2185   1.081       .  S
C2173      O2187   1.240       .  S
C2173      H2198   1.081       .  S
C2173      O2188   1.281       .  A
O2174      C2197   1.287       .  A
O2176     Mg2206   2.174       .  S
C2177      O2190   1.279       .  A
C2177      O2182   1.238       .  A
C2178      O2205   1.241       .  A
Mg2179     O2186   2.187   1_545  S
Mg2179     O2187   2.156   1_545  S
Mg2179     O2180   2.323   1_545  S
O2181      C2185   1.268       .  A
O2182     Mg2189   2.114       .  S
O2183      C2202   1.281       .  A
O2184      C2204   1.284       .  A
O2184     Mg2200   2.613       .  S
O2186     Mg2200   2.118       .  S
O2186      C2197   1.245       .  S
O2188     Mg2200   2.356       .  S
Mg2189     O2205   2.013       .  S
O2190     Mg2206   2.393       .  S
H2191      C2196   1.081       .  S
O2192     Mg2200   2.200       .  S
O2192      C2195   1.232       .  S
H2193      C2195   1.081       .  S
H2194      C2197   1.082       .  S
O2199     Mg2206   2.240       .  S
C2202      O2207   1.270       .  A
O2203      C2204   1.239       .  A
O2209     Mg2211   2.089       .  S
O2209     Mg2217   2.201       .  S
O2209      C2244   1.236       .  S
C2210      O2223   1.232       .  S
C2210      H2249   1.081       .  S
C2210      O2247   1.257       .  A
Mg2211     O2240   2.038       .  S
Mg2211     O2255   2.317       .  S
Mg2211     O2251   2.141       .  S
Mg2211     O2222   2.407       .  S
O2212     Mg2254   2.117       .  S
O2212     Mg2237   2.011       .  S
O2212      C2233   1.235       .  S
O2213      C2244   1.263       .  A
O2213     Mg2237   2.210       .  S
C2214      O2216   1.295       .  A
C2214      O2228   1.280       .  A
C2214      C2262   1.513       .  S
O2215      C2243   1.261       .  A
O2215     Mg2217   2.293       .  S
O2216     Mg2248   2.415   1_556  S
Mg2217     O2223   2.079       .  S
Mg2217     O2231   2.250       .  S
Mg2217     O2219   2.351       .  S
C2218      O2256   1.276       .  A
C2218      O2224   1.251   1_556  A
O2219      C2226   1.272       .  A
H2220      C2233   1.081       .  S
C2221      O2235   1.241       .  S
C2221      H2246   1.081       .  S
C2221      O2236   1.282       .  A
O2222      C2245   1.287       .  A
O2223     Mg2237   2.194       .  S
O2224     Mg2254   2.183       .  S
C2225      O2238   1.286       .  A
C2225      O2230   1.261       .  A
C2226      O2253   1.244       .  A
Mg2227     O2234   2.187   1_556  S
Mg2227     O2235   2.160       .  S
Mg2227     O2228   2.312       .  S
Mg2227     O2229   2.303   1_556  S
Mg2227     O2256   2.361       .  S
O2229      C2233   1.268       .  A
O2230     Mg2237   2.234       .  S
O2231      C2250   1.282       .  A
O2232      C2252   1.284       .  A
O2232     Mg2248   2.600       .  S
O2234     Mg2248   2.113       .  S
O2234      C2245   1.244       .  S
O2235     Mg2254   2.225   1_556  S
O2236     Mg2248   2.355   1_556  S
Mg2237     O2253   2.083       .  S
O2238     Mg2254   2.357       .  S
H2239      C2244   1.081       .  S
O2240     Mg2248   2.201       .  S
O2240      C2243   1.228       .  S
H2241      C2243   1.081       .  S
H2242      C2245   1.082       .  S
O2247     Mg2254   2.234       .  S
C2250      O2255   1.274       .  A
O2251      C2252   1.240       .  A
O2257     Mg2259   2.075       .  S
O2257     Mg2265   2.140       .  S
O2257      C2292   1.228       .  S
C2258      O2271   1.231       .  S
C2258      H2297   1.081       .  S
C2258      O2295   1.261       .  A
Mg2259     O2288   2.026       .  S
Mg2259     O2303   2.296       .  S
Mg2259     O2299   2.103       .  S
Mg2259     O2270   2.370       .  S
O2260     Mg2302   2.153       .  S
O2260     Mg2285   2.039       .  S
O2260      C2281   1.237       .  S
O2261      C2292   1.259       .  A
O2261     Mg2285   2.260       .  S
C2262      O2264   1.293       .  A
C2262      O2276   1.281       .  A
O2263      C2291   1.268       .  A
O2263     Mg2265   2.305       .  S
O2264     Mg2296   2.404       .  S
Mg2265     O2271   2.118       .  S
Mg2265     O2279   2.308       .  S
Mg2265     O2267   2.357       .  S
C2266      O2304   1.270       .  A
C2266      O2272   1.242       .  A
O2267      C2274   1.286       .  A
H2268      C2281   1.081       .  S
C2269      O2283   1.240       .  S
C2269      H2294   1.081       .  S
C2269      O2284   1.281       .  A
O2270      C2293   1.285       .  A
O2271     Mg2285   2.177       .  S
O2272     Mg2302   2.145       .  S
C2273      O2286   1.274       .  A
C2273      O2278   1.252       .  A
C2274      O2301   1.243       .  A
Mg2275     O2282   2.162       .  S
Mg2275     O2283   2.164       .  S
Mg2275     O2276   2.319       .  S
Mg2275     O2277   2.331       .  S
Mg2275     O2304   2.372       .  S
O2277      C2281   1.272       .  A
O2278     Mg2285   2.193       .  S
O2279      C2298   1.284       .  A
O2280      C2300   1.285       .  A
O2280     Mg2296   2.591       .  S
O2282     Mg2296   2.119       .  S
O2282      C2293   1.246       .  S
O2283     Mg2302   2.230       .  S
O2284     Mg2296   2.356       .  S
Mg2285     O2301   2.023       .  S
O2286     Mg2302   2.363       .  S
H2287      C2292   1.081       .  S
O2288     Mg2296   2.198       .  S
O2288      C2291   1.234       .  S
H2289      C2291   1.081       .  S
H2290      C2293   1.082       .  S
O2295     Mg2302   2.266       .  S
C2298      O2303   1.268       .  A
O2299      C2300   1.239       .  A
