geometry optimzed in LAMMPS
_audit_creation_date              2020-11-30 
_audit_creation_method            'lammps2cif' 
_symmetry_space_group_name_H-M    'P1' 
_symmetry_Int_Tables_number       1 
_symmetry_cell_setting            triclinic 
loop_ 
_symmetry_equiv_pos_as_xyz 
  x,y,z 
_cell_length_a                    81.85886956371824 
_cell_length_b                    82.62255232362182 
_cell_length_c                    32.8597626753981 
_cell_angle_alpha                 90.72920734477493 
_cell_angle_beta                  88.81169515469863 
_cell_angle_gamma                 123.84431315532535 
loop_ 
_atom_site_label 
_atom_site_type_symbol 
_atom_site_fract_x 
_atom_site_fract_y 
_atom_site_fract_z 
_atom_site_charge 
O1          O  0.07987782  0.45115897  0.45287472    -0.80360
O2          O  0.04088512  0.49414391  0.48455788    -0.65050
O3          O  0.07645304  0.47977905  0.48014191    -1.11650
C4          C  0.02953400  0.43434397  0.08130035     1.06530
O5          O  0.04452729  0.49524580  0.04970227    -0.78260
O6          O  0.05343832  0.47535983  0.09813348    -0.65840
Ni7        Ni  0.07945831  0.47196119  0.42800439     1.34870
C8          C  0.07073723  0.48862118  0.08785445     0.85260
O9          O  0.07465195  0.50894787  0.44808538    -0.78800
O10         O  0.08146414  0.49441921  0.39980449    -0.89070
C11         C  0.03856879  0.49901365  0.01899280     0.84840
O12         O  0.05149461  0.45293035  0.41962681    -0.67270
O13         O  0.02073434  0.44265233  0.07411035    -0.86560
C14         C  0.03784757  0.45578423  0.42386902     0.85670
C15         C  0.08214528  0.50951534  0.41374611     1.07240
H16         H  0.03382707  0.45391922  0.00213781     0.39040
O17         O  0.04374440  0.46538796  0.01624733    -1.09220
O18         O  0.07869270  0.48422564  0.05978694    -0.65870
Ni19       Ni  0.06332023  0.46092711  0.02349502     1.26350
O20         O  0.04194147  0.47202137  0.43688373    -0.66100
O21         O  0.04756106  0.44124850  0.06837284    -0.78390
C22         C  0.08608756  0.44954269  0.48714316     0.85050
O23         O  0.08323539  0.45558767  0.02118457    -0.65570
Ni24       Ni  0.03251843  0.46892991  0.06258124     1.27450
Ni25       Ni  0.05862182  0.48714986  0.48126695     1.26060
H26         H  0.08920648  0.49061629  0.48864755     0.39590
O27         O  0.12795891  0.40500723  0.48990147    -0.80360
O28         O  0.15764369  0.35514700  0.44969903    -0.65050
O29         O  0.15302834  0.39720627  0.45811528    -1.11650
C30         C  0.11298692  0.36557487  0.34691306     1.06530
O31         O  0.13327440  0.33433211  0.40842038    -0.78260
O32         O  0.15935807  0.37163662  0.37539211    -0.65840
Ni33       Ni  0.15037035  0.40584260  0.00974238     1.34870
C34         C  0.16652198  0.38985695  0.37165150     0.85260
O35         O  0.17943500  0.39016787  0.98695494    -0.78800
O36         O  0.17402818  0.40824684  0.02978036    -0.89070
C37         C  0.14711926  0.33882382  0.43198744     0.84840
O38         O  0.13317379  0.38103242  0.03726491    -0.67270
O39         O  0.12945526  0.36848764  0.34158750    -0.86560
C40         C  0.13196686  0.36512590  0.03193161     0.85670
C41         C  0.18480043  0.40242772  0.01630435     1.07240
H42         H  0.12018481  0.35472541  0.44140024     0.39040
O43         O  0.13155748  0.36379094  0.42495749    -1.09220
O44         O  0.15587314  0.39700964  0.37924862    -0.65870
Ni45       Ni  0.13262518  0.38664199  0.41873006     1.26350
O46         O  0.14065657  0.36267478  0.00294084    -0.66100
O47         O  0.11100762  0.37382579  0.37809040    -0.78390
C48         C  0.12710622  0.41261138  0.45689626     0.85050
O49         O  0.13245393  0.40964035  0.42196159    -0.65570
Ni50       Ni  0.13202306  0.35209475  0.37582394     1.27450
Ni51       Ni  0.15544929  0.37623222  0.45551482     1.26060
H52         H  0.16490347  0.40837524  0.44661802     0.39590
O53         O  0.05746112  0.52787498  0.27003656    -0.80360
O54         O  0.08053761  0.60892465  0.27509738    -0.65050
O55         O  0.05110781  0.55444972  0.25274855    -1.11650
C56         C  0.09240121  0.56470429  0.14642620     1.06530
O57         O  0.09265718  0.61797978  0.20995057    -0.78260
O58         O  0.06360808  0.58837840  0.16986379    -0.65840
Ni59       Ni  0.04072237  0.53496972  0.29287681     1.34870
C60         C  0.05038849  0.57050098  0.16628479     0.85260
O61         O  0.04462422  0.57590371  0.30992905    -0.78800
O62         O  0.02444466  0.54310513  0.31464858    -0.89070
C63         C  0.08917539  0.62159148  0.24596996     0.84840
O64         O  0.05904195  0.54913606  0.33423209    -0.67270
O65         O  0.08893881  0.57767749  0.13814797    -0.86560
C66         C  0.07687363  0.56238392  0.32818815     0.85670
C67         C  0.02787728  0.56003406  0.32142979     1.07240
H68         H  0.09673107  0.58765704  0.23920286     0.39040
O69         O  0.08433516  0.58337587  0.22682391    -1.09220
O70         O  0.05425589  0.55763000  0.17341952    -0.65870
Ni71       Ni  0.07117032  0.55714095  0.21580199     1.26350
O72         O  0.08188835  0.57715096  0.30576879    -0.66100
O73         O  0.09224166  0.56086361  0.18286155    -0.78390
C74         C  0.05229507  0.52003781  0.23526467     0.85050
O75         O  0.05871057  0.53069264  0.20467786    -0.65570
Ni76       Ni  0.09032954  0.59755490  0.17705376     1.27450
Ni77       Ni  0.06546303  0.58075015  0.26796432     1.26060
H78         H  0.03976729  0.55176750  0.23814725     0.39590
O79         O  0.18023203  0.78795800  0.12090170    -0.80360
O80         O  0.13239504  0.71005074  0.18242366    -0.65050
O81         O  0.15053755  0.76306729  0.16828552    -1.11650
C82         C  0.19634683  0.77740932  0.26927075     1.06530
O83         O  0.13300237  0.71449991  0.25071120    -0.78260
O84         O  0.14022218  0.74947629  0.27154474    -0.65840
Ni85       Ni  0.15276998  0.77324901  0.11566888     1.34870
C86         C  0.14517767  0.76657596  0.26297599     0.85260
O87         O  0.11917752  0.72899554  0.13157294    -0.78800
O88         O  0.12550194  0.75816690  0.11171929    -0.89070
C89         C  0.12833652  0.70349519  0.21929123     0.84840
O90         O  0.15162076  0.75239043  0.08918136    -0.67270
O91         O  0.18042889  0.76344921  0.28658917    -0.86560
C92         C  0.16518214  0.75042584  0.09682101     0.85670
C93         C  0.11397804  0.73986590  0.11487460     1.07240
H94         H  0.17132656  0.74231957  0.20156309     0.39040
O95         O  0.16238337  0.74588620  0.21026015    -1.09220
O96         O  0.16116793  0.77791772  0.24309462    -0.65870
Ni97       Ni  0.17394548  0.77233043  0.19946802     1.26350
O98         O  0.16259115  0.74117153  0.12988240    -0.66100
O99         O  0.19646147  0.78055320  0.23154248    -0.78390
C100        C  0.18648737  0.80145981  0.14618616     0.85050
O101        O  0.18576551  0.79812156  0.18366386    -0.65570
Ni102      Ni  0.15628998  0.73929073  0.26598530     1.27450
Ni103      Ni  0.14152329  0.73672164  0.17105932     1.26060
H104        H  0.14122050  0.76446596  0.18358755     0.39590
O105        O  0.57999376  0.70594922  0.50186955    -0.80360
O106        O  0.62439079  0.79261094  0.46592453    -0.65050
O107        O  0.58892095  0.73864820  0.46430080    -1.11650
C108        C  0.64085943  0.74548193  0.37426367     1.06530
O109        O  0.65013636  0.79195887  0.47677812    -0.78260
O110        O  0.63524224  0.78297530  0.39822110    -0.65840
Ni111      Ni  0.58059547  0.72835229  0.01837297     1.34870
C112        C  0.61801816  0.77328581  0.38269871     0.85260
O113        O  0.58739429  0.76975798  0.98525030    -0.78800
O114        O  0.57837628  0.74992749  0.03818099    -0.89070
C115        C  0.64210199  0.80122882  0.47494641     0.84840
O116        O  0.60689346  0.73923207  0.04060846    -0.67270
O117        O  0.65129024  0.76198272  0.39088110    -0.86560
C118        C  0.62002929  0.75740284  0.04242282     0.85670
C119        C  0.57947978  0.76437116  0.02042780     1.07240
H120        H  0.62804798  0.75155971  0.47579099     0.39040
O121        O  0.62500319  0.75707072  0.45408551    -1.09220
O122        O  0.60535191  0.75482064  0.38896739    -0.65870
Ni123      Ni  0.60554534  0.73572605  0.42426439     1.26350
O124        O  0.61644132  0.76849656  0.52430913    -0.66100
O125        O  0.62270316  0.73333486  0.38436596    -0.78390
C126        C  0.59201006  0.70374407  0.48159844     0.85050
O127        O  0.60567455  0.71674620  0.45824735    -0.65570
Ni128      Ni  0.64925868  0.77644570  0.43308255     1.27450
Ni129      Ni  0.60702016  0.76521829  0.46873081     1.26060
H130        H  0.57752363  0.73621276  0.45017780     0.39590
O131        O  0.54894124  0.61094639  0.46542633    -0.80360
O132        O  0.49654555  0.52577388  0.52259263    -0.65050
O133        O  0.52004344  0.57866066  0.50536052    -1.11650
C134        C  0.56796187  0.58740057  0.10400031     1.06530
O135        O  0.50725689  0.52593420  0.08228135    -0.78260
O136        O  0.51755552  0.55795817  0.12144682    -0.65840
Ni137      Ni  0.52502872  0.58682522  0.44982962     1.34870
C138        C  0.51348007  0.57022229  0.11242395     0.85260
O139        O  0.48599307  0.54491354  0.48279415    -0.78800
O140        O  0.50099695  0.56311993  0.42796694    -0.89070
C141        C  0.50368953  0.51978207  0.04642211     0.84840
O142        O  0.54036981  0.57657720  0.43737519    -0.67270
O143        O  0.55600802  0.56965155  0.11213612    -0.86560
C144        C  0.53471651  0.55907615  0.44296354     0.85670
C145        C  0.48624026  0.54792774  0.44498066     1.07240
H146        H  0.54113264  0.55929145  0.02648743     0.39040
O147        O  0.53235966  0.56064556  0.04385034    -1.09220
O148        O  0.52299244  0.58373639  0.08550577    -0.65870
Ni149      Ni  0.54163165  0.58743674  0.04181329     1.26350
O150        O  0.52064429  0.54783688  0.46721114    -0.66100
O151        O  0.56417631  0.59655079  0.07853512    -0.78390
C152        C  0.55504524  0.62144243  0.99763138     0.85050
O153        O  0.55016045  0.61385958  0.03323502    -0.65570
Ni154      Ni  0.53142920  0.54866440  0.09474493     1.27450
Ni155      Ni  0.50848337  0.55215446  0.51361423     1.26060
H156        H  0.51144468  0.58221801  0.51642935     0.39590
O157        O  0.54347390  0.99661139  0.31788071    -0.80360
O158        O  0.55984678  0.93088770  0.28194454    -0.65050
O159        O  0.55315330  0.97272460  0.29277520    -1.11650
C160        C  0.50853873  0.93833260  0.18652033     1.06530
O161        O  0.56816238  0.94176620  0.21853421    -0.78260
O162        O  0.56372702  0.96891967  0.18610465    -0.65840
Ni163      Ni  0.54858621  0.97976448  0.34455658     1.34870
C164        C  0.56089989  0.98219972  0.19497468     0.85260
O165        O  0.57650140  0.96390034  0.33340206    -0.78800
O166        O  0.55572094  0.96499743  0.37278905    -0.89070
C167        C  0.56661324  0.93039462  0.24655205     0.84840
O168        O  0.52282840  0.95724271  0.33921884    -0.67270
O169        O  0.52340061  0.93868545  0.17161494    -0.86560
C170        C  0.51869204  0.93989225  0.33640179     0.85670
C171        C  0.57311433  0.96999207  0.36614868     1.07240
H172        H  0.52643782  0.92916380  0.25536430     0.39040
O173        O  0.53757430  0.94213223  0.24886633    -1.09220
O174        O  0.54655758  0.97871989  0.21703289    -0.65870
Ni175      Ni  0.53061493  0.95994953  0.25783982     1.26350
O176        O  0.53207403  0.93628130  0.32745472    -0.66100
O177        O  0.50904836  0.94587641  0.22120324    -0.78390
C178        C  0.53472469  0.99452275  0.28501336     0.85050
O179        O  0.52363688  0.97792352  0.26888876    -0.65570
Ni180      Ni  0.54630531  0.94110428  0.19596858     1.27450
Ni181      Ni  0.55621477  0.95181850  0.29113642     1.26060
H182        H  0.56461993  0.98357956  0.27992401     0.39590
O183        O  0.62602395  0.82556832  0.13168603    -0.80360
O184        O  0.59480282  0.87310746  0.17330618    -0.65050
O185        O  0.62994669  0.85701101  0.16720038    -1.11650
C186        C  0.60352523  0.82267611  0.28346893     1.06530
O187        O  0.59893125  0.87689723  0.24196178    -0.78260
O188        O  0.63126127  0.87645657  0.26220011    -0.65840
Ni189      Ni  0.63872217  0.85239722  0.11866502     1.34870
C190        C  0.64277847  0.87075599  0.25816888     0.85260
O191        O  0.62655553  0.88274093  0.11776636    -0.78800
O192        O  0.65169607  0.87911285  0.10777273    -0.89070
C193        C  0.59292504  0.87936908  0.20820252     0.84840
O194        O  0.61726120  0.84875480  0.08867081    -0.67270
O195        O  0.60625092  0.83898070  0.29461466    -0.86560
C196        C  0.59986077  0.83652622  0.09976090     0.85670
C197        C  0.64354707  0.88807260  0.10129718     1.07240
H198        H  0.58693525  0.83766550  0.20774476     0.39040
O199        O  0.60064166  0.84756657  0.21249909    -1.09220
O200        O  0.63662691  0.85409067  0.24303768    -0.65870
Ni201      Ni  0.61534196  0.83682529  0.20623846     1.26350
O202        O  0.59360916  0.84116074  0.13111695    -0.66100
O203        O  0.60085123  0.81764271  0.24657311    -0.78390
C204        C  0.63186483  0.82135531  0.16247739     0.85050
O205        O  0.62907916  0.82552013  0.19742672    -0.65570
Ni206      Ni  0.60308021  0.85811471  0.26548100     1.27450
Ni207      Ni  0.61234637  0.86466240  0.16568310     1.26060
H208        H  0.64166330  0.86780393  0.17917601     0.39590
O209        O  0.39035862  0.90444908  0.46948127    -0.80360
O210        O  0.47959153  0.95207928  0.46647599    -0.65050
O211        O  0.42585671  0.91485549  0.48807362    -1.11650
C212        C  0.43554442  0.96845215  0.07425550     1.06530
O213        O  0.47872007  0.95249769  0.03119948    -0.78260
O214        O  0.45689391  0.95073246  0.09409954    -0.65840
Ni215      Ni  0.41081505  0.90511675  0.43956232     1.34870
C216        C  0.44937478  0.93278706  0.09224653     0.85260
O217        O  0.45607624  0.91583837  0.44747076    -0.78800
O218        O  0.43086951  0.90438517  0.40630733    -0.89070
C219        C  0.48837463  0.95947242  0.99888786     0.84840
O220        O  0.41828576  0.93010399  0.41762618    -0.67270
O221        O  0.45327186  0.97730307  0.06102085    -0.86560
C222        C  0.43551299  0.94509476  0.41315758     0.85670
C223        C  0.44752997  0.90727326  0.41520534     1.07240
H224        H  0.44599278  0.95865056  0.99004451     0.39040
O225        O  0.44743825  0.95024622  0.00727590    -1.09220
O226        O  0.43611793  0.92255952  0.06649986    -0.65870
Ni227      Ni  0.42295282  0.93042395  0.03028298     1.26350
O228        O  0.45003951  0.94527800  0.42684405    -0.66100
O229        O  0.42310297  0.94953980  0.07008737    -0.78390
C230        C  0.39130727  0.91988104  0.47911514     0.85050
O231        O  0.40681568  0.93452024  0.99508874    -0.65570
Ni232      Ni  0.46692135  0.96585027  0.04610631     1.27450
Ni233      Ni  0.45248163  0.93353194  0.47583114     1.26060
H234        H  0.42483551  0.90389457  0.50108082     0.39590
O235        O  0.30108049  0.87964471  0.49641727    -0.80360
O236        O  0.21439010  0.83515738  0.44720966    -0.65050
O237        O  0.26646182  0.85262035  0.46048716    -1.11650
C238        C  0.27573100  0.89566380  0.35712362     1.06530
O239        O  0.21589739  0.85355430  0.39587770    -0.78260
O240        O  0.23762196  0.84207868  0.36660548    -0.65840
Ni241      Ni  0.27539830  0.85742693  0.51507686     1.34870
C242        C  0.25192820  0.84023342  0.36501556     0.85260
O243        O  0.23081367  0.82128479  0.98572694    -0.78800
O244        O  0.25052805  0.83403215  0.03874003    -0.89070
C245        C  0.20687190  0.84059191  0.42285871     0.84840
O246        O  0.26761043  0.87518253  0.02716297    -0.67270
O247        O  0.26455215  0.87870640  0.34428476    -0.86560
C248        C  0.25081575  0.87228551  0.02210799     0.85670
C249        C  0.23458574  0.81998406  0.02226294     1.07240
H250        H  0.25088933  0.87794292  0.43973831     0.39040
O251        O  0.25063790  0.86784535  0.42436915    -1.09220
O252        O  0.26931143  0.85380654  0.37874472    -0.65870
Ni253      Ni  0.27610749  0.87400570  0.42342757     1.26350
O254        O  0.23790703  0.85781789  0.50151398    -0.66100
O255        O  0.28495279  0.89734296  0.38930261    -0.78390
C256        C  0.31053002  0.88606022  0.46224883     0.85050
O257        O  0.30193591  0.88066383  0.42806301    -0.65570
Ni258      Ni  0.24030276  0.86588947  0.37206777     1.27450
Ni259      Ni  0.24028106  0.84429884  0.45517087     1.26060
H260        H  0.26831522  0.84290695  0.44905433     0.39590
O261        O  0.21296233  0.37856914  0.14145351    -0.80360
O262        O  0.28695655  0.39948511  0.19489075    -0.65050
O263        O  0.24666090  0.38383672  0.17467394    -1.11650
C264        C  0.23791874  0.41601094  0.27854538     1.06530
O265        O  0.29997395  0.42605467  0.23409962    -0.78260
O266        O  0.26869637  0.39495882  0.26843762    -0.65840
Ni267      Ni  0.22934683  0.36901630  0.13153650     1.34870
C268        C  0.25121386  0.38016888  0.26654502     0.85260
O269        O  0.27487789  0.38941714  0.11623052    -0.78800
O270        O  0.24576329  0.36010375  0.12051339    -0.89070
C271        C  0.30154990  0.41370373  0.21409485     0.84840
O272        O  0.24204534  0.38732076  0.08845998    -0.67270
O273        O  0.25382020  0.41785657  0.28973021    -0.86560
C274        C  0.24744045  0.40461515  0.09505536     0.85670
C275        C  0.26387456  0.37058181  0.10994441     1.07240
H276        H  0.26812332  0.42929200  0.19650646     0.39040
O277        O  0.26618706  0.41725983  0.20564333    -1.09220
O278        O  0.23791972  0.38211773  0.25344316    -0.65870
Ni279      Ni  0.23922748  0.39788492  0.20818462     1.26350
O280        O  0.25926233  0.41401310  0.12395966    -0.66100
O281        O  0.23292302  0.41253822  0.24184741    -0.78390
C282        C  0.20337938  0.37421329  0.17460367     0.85050
O283        O  0.21254441  0.37929522  0.20728965    -0.65570
Ni284      Ni  0.27680723  0.42149567  0.25933363     1.27450
Ni285      Ni  0.27190955  0.40520231  0.15959390     1.26060
H286        H  0.24877330  0.37533206  0.18994602     0.39590
O287        O  0.47376018  0.49671716  0.32391059    -0.80360
O288        O  0.38918666  0.44372723  0.27825746    -0.65050
O289        O  0.44503376  0.46906599  0.28015130    -1.11650
C290        C  0.44787244  0.51481636  0.19504313     1.06530
O291        O  0.39289864  0.44629114  0.21030186    -0.78260
O292        O  0.42867007  0.46155829  0.18088685    -0.65840
Ni293      Ni  0.45860172  0.46939804  0.32627260     1.34870
C294        C  0.44688808  0.46977753  0.18573043     0.85260
O295        O  0.41314967  0.43451919  0.32039503    -0.78800
O296        O  0.44381875  0.44174461  0.32769910    -0.89070
C297        C  0.38202482  0.44117748  0.24239012     0.84840
O298        O  0.43978275  0.46895654  0.36141019    -0.67270
O299        O  0.43535213  0.49910685  0.17550009    -0.86560
C300        C  0.43222186  0.47856088  0.35567236     0.85670
C301        C  0.42530687  0.43013445  0.33240622     1.07240
H302        H  0.41597082  0.48300189  0.26142116     0.39040
O303        O  0.42192947  0.47678650  0.24901229    -1.09220
O304        O  0.45690051  0.48542465  0.20660508    -0.65870
Ni305      Ni  0.44894056  0.49270799  0.25662803     1.26350
O306        O  0.41983354  0.47327624  0.32729950    -0.66100
O307        O  0.45061546  0.51398868  0.23232093    -0.78390
C308        C  0.48264131  0.50319248  0.29013349     0.85050
O309        O  0.47605665  0.51019626  0.26780383    -0.65570
Ni310      Ni  0.41403250  0.47235742  0.19445365     1.27450
Ni311      Ni  0.41716696  0.45572715  0.28313534     1.26060
H312        H  0.44811565  0.46262342  0.26008805     0.39590
O313        O  0.95392350  0.20636832  0.18468495    -0.80360
O314        O  0.87116543  0.14842736  0.10763257    -0.65050
O315        O  0.92381210  0.17595903  0.14344562    -1.11650
C316        C  0.92863196  0.22086999  0.04176292     1.06530
O317        O  0.88517731  0.15399417  0.04798289    -0.78260
O318        O  0.91924494  0.18307290  0.01764502    -0.65840
Ni319      Ni  0.92980435  0.18143296  0.19902204     1.34870
C320        C  0.92494578  0.17295962  0.03166435     0.85260
O321        O  0.88980880  0.14098313  0.16158195    -0.78800
O322        O  0.90680640  0.15578803  0.21738921    -0.89070
C323        C  0.86981799  0.14543605  0.06937427     0.84840
O324        O  0.91603330  0.19399970  0.20532857    -0.67270
O325        O  0.91007264  0.20863901  0.04027843    -0.86560
C326        C  0.89879147  0.18833076  0.19433787     0.85670
C327        C  0.89345203  0.14034263  0.19850483     1.07240
H328        H  0.90230088  0.19325124  0.11030260     0.39040
O329        O  0.90582927  0.18508412  0.09705096    -1.09220
O330        O  0.93270732  0.17748382  0.06656977    -0.65870
Ni331      Ni  0.93281915  0.19653471  0.10390197     1.26350
O332        O  0.88879850  0.17365150  0.17070374    -0.66100
O333        O  0.94004371  0.21721127  0.06134116    -0.78390
C334        C  0.96564248  0.21036368  0.15414585     0.85050
O335        O  0.95963791  0.20712093  0.11727389    -0.65570
Ni336      Ni  0.89728250  0.18126499  0.04334359     1.27450
Ni337      Ni  0.89715729  0.16252806  0.12891184     1.26060
H338        H  0.92858326  0.16796732  0.13568683     0.39590
O339        O  0.05606007  0.24530986  0.13881205    -0.80360
O340        O  0.14645815  0.28820619  0.16074341    -0.65050
O341        O  0.09154790  0.25490493  0.16324755    -1.11650
C342        C  0.09625882  0.30249596  0.25971966     1.06530
O343        O  0.14495918  0.29084403  0.22525666    -0.78260
O344        O  0.11577337  0.28095187  0.28084981    -0.65840
Ni345      Ni  0.07995753  0.25121521  0.11159431     1.34870
C346        C  0.10731033  0.26314543  0.27230448     0.85260
O347        O  0.12244528  0.25672817  0.12387936    -0.78800
O348        O  0.10276252  0.25566870  0.07817054    -0.89070
C349        C  0.15404411  0.29810754  0.19188957     0.84840
O350        O  0.08855334  0.27793514  0.10860311    -0.67270
O351        O  0.11489932  0.31112333  0.25708001    -0.86560
C352        C  0.10637549  0.29231192  0.10771857     0.85670
C353        C  0.11780241  0.25537133  0.08730827     1.07240
H354        H  0.11359560  0.29725651  0.18318643     0.39040
O355        O  0.11390049  0.28755729  0.19779388    -1.09220
O356        O  0.09395082  0.25522309  0.24493818    -0.65870
Ni357      Ni  0.08723222  0.26874953  0.20574405     1.26350
O358        O  0.12005855  0.29006418  0.11839283    -0.66100
O359        O  0.08401817  0.28474890  0.24714496    -0.78390
C360        C  0.04883868  0.24307478  0.17493422     0.85050
O361        O  0.05933117  0.24913140  0.20723982    -0.65570
Ni362      Ni  0.13027002  0.30110955  0.24220707     1.27450
Ni363      Ni  0.11891575  0.27227753  0.16062408     1.26060
H364        H  0.08820129  0.24242540  0.17312431     0.39590
O365        O  0.21855951  0.33600367  0.45087037    -0.80360
O366        O  0.22463491  0.26303167  0.44443690    -0.65050
O367        O  0.22257110  0.30741893  0.43639762    -1.11650
C368        C  0.16953429  0.26583886  0.34837825     1.06530
O369        O  0.22808589  0.26543209  0.37611423    -0.78260
O370        O  0.22320048  0.29005161  0.33047731    -0.65840
Ni371      Ni  0.22218288  0.32006388  0.48434501     1.34870
C372        C  0.22230242  0.30490060  0.33329531     0.85260
O373        O  0.24515746  0.29992025  0.48381776    -0.78800
O374        O  0.22682097  0.30560192  0.52005304    -0.89070
C375        C  0.23031214  0.25957103  0.41038128     0.84840
O376        O  0.19520005  0.29963796  0.48749294    -0.67270
O377        O  0.18172051  0.26185124  0.33410472    -0.86560
C378        C  0.18875349  0.28166744  0.49219486     0.85670
C379        C  0.24336545  0.30868098  0.51415729     1.07240
H380        H  0.19082879  0.26157868  0.41901748     0.39040
O381        O  0.20217608  0.27301016  0.40676375    -1.09220
O382        O  0.21142785  0.30602481  0.35911336    -0.65870
Ni383      Ni  0.19804935  0.29299117  0.40787513     1.26350
O384        O  0.20005447  0.27513863  0.48543859    -0.66100
O385        O  0.17379017  0.27735033  0.37872369    -0.78390
C386        C  0.20393540  0.32988707  0.42850209     0.85050
O387        O  0.19420716  0.31316793  0.41206493    -0.65570
Ni388      Ni  0.20559748  0.26469944  0.35568215     1.27450
Ni389      Ni  0.22302769  0.28539211  0.44493553     1.26060
H390        H  0.23343343  0.31642419  0.41877408     0.39590
O391        O  0.29584531  0.16187444  0.28543171    -0.80360
O392        O  0.26806996  0.21115374  0.34934553    -0.65050
O393        O  0.30087717  0.19259173  0.32899272    -1.11650
C394        C  0.26535542  0.14880839  0.43569090     1.06530
O395        O  0.27228938  0.21152990  0.41712388    -0.78260
O396        O  0.29885271  0.20284706  0.43986088    -0.65840
Ni397      Ni  0.30704505  0.18839111  0.27482828     1.34870
C398        C  0.31033541  0.19751953  0.43045601     0.85260
O399        O  0.29926913  0.22276111  0.29331930    -0.78800
O400        O  0.31856022  0.21458068  0.26248438    -0.89070
C401        C  0.26626401  0.21582365  0.38584632     0.84840
O402        O  0.28371967  0.18259357  0.25015036    -0.67270
O403        O  0.26746791  0.16390200  0.45301730    -0.86560
C404        C  0.26724935  0.17394439  0.26815489     0.85670
C405        C  0.31388652  0.22653703  0.26956590     1.07240
H406        H  0.25779198  0.17291563  0.36961517     0.39040
O407        O  0.27139618  0.18190773  0.37670883    -1.09220
O408        O  0.30495824  0.18364547  0.40535685    -0.65870
Ni409      Ni  0.28516408  0.17039355  0.36409338     1.26350
O410        O  0.26461631  0.18138994  0.29990367    -0.66100
O411        O  0.26937128  0.14891039  0.39835716    -0.78390
C412        C  0.30346432  0.15836323  0.31390904     0.85050
O413        O  0.29885015  0.15910977  0.35010221    -0.65570
Ni414      Ni  0.27079361  0.18804009  0.43243580     1.27450
Ni415      Ni  0.28457212  0.20201895  0.33583576     1.26060
H416        H  0.31324174  0.20183908  0.34178885     0.39590
O417        O  0.88069074  0.71886641  0.31998315    -0.80360
O418        O  0.95274957  0.74116630  0.37479278    -0.65050
O419        O  0.91292986  0.72306575  0.35094536    -1.11650
C420        C  0.89770441  0.74895050  0.45746193     1.06530
O421        O  0.96341486  0.76776605  0.41401884    -0.78260
O422        O  0.93500993  0.73681261  0.45217403    -0.65840
Ni423      Ni  0.89631436  0.70959095  0.30572634     1.34870
C424        C  0.91876767  0.72078187  0.44853851     0.85260
O425        O  0.94155677  0.73060034  0.29289947    -0.78800
O426        O  0.91244612  0.70110624  0.29211510    -0.89070
C427        C  0.96590798  0.75527206  0.39701148     0.84840
O428        O  0.90868426  0.72914465  0.26491026    -0.67270
O429        O  0.91473074  0.75421321  0.47036336    -0.86560
C430        C  0.91309890  0.74588956  0.27429178     0.85670
C431        C  0.93049191  0.71192509  0.28241726     1.07240
H432        H  0.92980912  0.76708907  0.37588244     0.39040
O433        O  0.92936562  0.75577668  0.38498446    -1.09220
O434        O  0.90467916  0.71950906  0.42973948    -0.65870
Ni435      Ni  0.90328928  0.73453147  0.38616736     1.26350
O436        O  0.92449793  0.75457609  0.30384325    -0.66100
O437        O  0.89436975  0.74660151  0.42012044    -0.78390
C438        C  0.87019641  0.70922490  0.34959379     0.85050
O439        O  0.87726345  0.71372927  0.38406986    -0.65570
Ni440      Ni  0.93945891  0.76140645  0.43959912     1.27450
Ni441      Ni  0.93735203  0.74570850  0.33830168     1.26060
H442        H  0.91560084  0.71476827  0.36538751     0.39590
O443        O  0.13510581  0.79745599  0.43126139    -0.80360
O444        O  0.05463580  0.78677487  0.46330468    -0.65050
O445        O  0.10233128  0.79259215  0.43847149    -1.11650
C446        C  0.11469626  0.84503035  0.35928045     1.06530
O447        O  0.05438006  0.78244814  0.39584434    -0.78260
O448        O  0.08362571  0.79029402  0.34363467    -0.65840
Ni449      Ni  0.11818299  0.79160651  0.47674120     1.34870
C450        C  0.10149686  0.79610015  0.33963560     0.85260
O451        O  0.07223785  0.76778045  0.49341046    -0.78800
O452        O  0.10077139  0.78371088  0.02240532    -0.89070
C453        C  0.04569418  0.78226494  0.42888685     0.84840
O454        O  0.12566817  0.81750975  0.48763207    -0.67270
O455        O  0.09759676  0.83104765  0.34605284    -0.86560
C456        C  0.11452010  0.82202857  0.50480749     0.85670
C457        C  0.08402043  0.76825509  0.01937800     1.07240
H458        H  0.08735740  0.82172676  0.43403217     0.39040
O459        O  0.08783908  0.81155951  0.42039698    -1.09220
O460        O  0.11399199  0.80978268  0.36160542    -0.65870
Ni461      Ni  0.11319777  0.81843231  0.41583089     1.26350
O462        O  0.09530258  0.81124337  0.49995117    -0.66100
O463        O  0.12180293  0.84299973  0.39175213    -0.78390
C464        C  0.14128169  0.81159659  0.40703877     0.85050
O465        O  0.13847207  0.82485201  0.41500064    -0.65570
Ni466      Ni  0.07545074  0.80603682  0.37031583     1.27450
Ni467      Ni  0.07967341  0.79018076  0.45690405     1.26060
H468        H  0.09887814  0.78293017  0.41751850     0.39590
O469        O  0.25214179  0.04855442  0.17049946    -0.80360
O470        O  0.29686030  0.13365554  0.12149467    -0.65050
O471        O  0.25977584  0.07992537  0.13230565    -1.11650
C472        C  0.30687569  0.07947755  0.03926265     1.06530
O473        O  0.29807327  0.13029856  0.05590519    -0.78260
O474        O  0.28863072  0.09875154  0.01352806    -0.65840
Ni475      Ni  0.25404988  0.07157379  0.18754859     1.34870
C476        C  0.27102170  0.09282541  0.02121891     0.85260
O477        O  0.26260149  0.11391769  0.15549731    -0.78800
O478        O  0.25397696  0.09423179  0.20819247    -0.89070
C479        C  0.29927584  0.14044922  0.08634578     0.84840
O480        O  0.28088693  0.08215221  0.20375569    -0.67270
O481        O  0.31740439  0.09752032  0.04841449    -0.86560
C482        C  0.29529441  0.09960328  0.19845939     0.85670
C483        C  0.25529794  0.10883840  0.19091334     1.07240
H484        H  0.30299878  0.09909385  0.11887295     0.39040
O485        O  0.29375595  0.09901500  0.10095425    -1.09220
O486        O  0.26230153  0.08199782  0.05177328    -0.65870
Ni487      Ni  0.27255764  0.07270039  0.09124715     1.26350
O488        O  0.29335329  0.11088330  0.17642405    -0.66100
O489        O  0.28823833  0.06842436  0.04942270    -0.78390
C490        C  0.26576831  0.04717545  0.15555809     0.85050
O491        O  0.27938021  0.06050106  0.13211426    -0.65570
Ni492      Ni  0.30789552  0.11380527  0.05366813     1.27450
Ni493      Ni  0.27854073  0.10693268  0.12839420     1.26060
H494        H  0.24751480  0.07682301  0.12128619     0.39590
O495        O  0.22305204  0.95737822  0.14549477    -0.80360
O496        O  0.18219159  0.87085448  0.18480895    -0.65050
O497        O  0.19723457  0.92165839  0.17569671    -1.11650
C498        C  0.23566789  0.92805890  0.28783584     1.06530
O499        O  0.20239032  0.87090951  0.22915939    -0.78260
O500        O  0.18384865  0.88795616  0.26206566    -0.65840
Ni501      Ni  0.20279868  0.93254810  0.12245625     1.34870
C502        C  0.18053850  0.90128086  0.26623966     0.85260
O503        O  0.16832045  0.88619176  0.14307531    -0.78800
O504        O  0.18208068  0.90827072  0.09392000    -0.89070
C505        C  0.19172566  0.86447089  0.19814161     0.84840
O506        O  0.22244175  0.92752594  0.10814307    -0.67270
O507        O  0.21822867  0.91448795  0.29573231    -0.86560
C508        C  0.21992104  0.91095759  0.11010914     0.85670
C509        C  0.16873737  0.89100626  0.10640346     1.07240
H510        H  0.22373898  0.90744821  0.19693351     0.39040
O511        O  0.21291803  0.90626031  0.21213402    -1.09220
O512        O  0.19398356  0.91965321  0.25730346    -0.65870
Ni513      Ni  0.21713656  0.93071927  0.21688791     1.26350
O514        O  0.20657199  0.89739182  0.13276943    -0.66100
O515        O  0.23829137  0.93872322  0.25713237    -0.78390
C516        C  0.22908641  0.96595504  0.18009886     0.85050
O517        O  0.22304181  0.95663730  0.21414388    -0.65570
Ni518      Ni  0.20929987  0.89271784  0.26137915     1.27450
Ni519      Ni  0.19023801  0.89614329  0.17829048     1.26060
H520        H  0.18639989  0.92208604  0.18642137     0.39590
O521        O  0.78334897  0.72814050  0.16907352    -0.80360
O522        O  0.84015882  0.70435811  0.13728815    -0.65050
O523        O  0.81418572  0.72946868  0.13782079    -1.11650
C524        C  0.76988677  0.67456692  0.04905266     1.06530
O525        O  0.83455204  0.70153867  0.07325345    -0.78260
O526        O  0.80846047  0.70196882  0.02658897    -0.65840
Ni527      Ni  0.80749767  0.73241655  0.19131480     1.34870
C528        C  0.82015171  0.71997840  0.03159425     0.85260
O529        O  0.84910381  0.73826729  0.16083581    -0.78800
O530        O  0.83335613  0.73917249  0.21524328    -0.89070
C531        C  0.83877408  0.69624719  0.10453490     0.84840
O532        O  0.79304837  0.70473420  0.20576729    -0.67270
O533        O  0.78045292  0.66851955  0.05933843    -0.86560
C534        C  0.80132931  0.69551551  0.20525338     0.85670
C535        C  0.84948506  0.74303080  0.19729943     1.07240
H536        H  0.79480148  0.68693915  0.12938690     0.39040
O537        O  0.80408340  0.69653064  0.11042823    -1.09220
O538        O  0.81528566  0.72765324  0.05897987    -0.65870
Ni539      Ni  0.79422469  0.71163076  0.10017743     1.26350
O540        O  0.81793389  0.70340023  0.18790856    -0.66100
O541        O  0.77422233  0.69195704  0.05946371    -0.78390
C542        C  0.77996438  0.73242681  0.13386654     0.85050
O543        O  0.78454062  0.72787827  0.09981287    -0.65570
Ni544      Ni  0.80769751  0.68470040  0.06509810     1.27450
Ni545      Ni  0.82731567  0.71712841  0.13705646     1.26060
H546        H  0.82247097  0.74231152  0.12602740     0.39590
O547        O  0.74022577  0.78185094  0.12162174    -0.80360
O548        O  0.71136637  0.83162379  0.19341275    -0.65050
O549        O  0.74019796  0.81085753  0.16179962    -1.11650
C550        C  0.70974158  0.77455380  0.27858395     1.06530
O551        O  0.69335946  0.81386820  0.24676671    -0.78260
O552        O  0.73220272  0.82756630  0.25603484    -0.65840
Ni553      Ni  0.74015783  0.80453055  0.10606472     1.34870
C554        C  0.74808005  0.82842044  0.25044385     0.85260
O555        O  0.74006869  0.84252581  0.14136376    -0.78800
O556        O  0.74204998  0.82814658  0.08572666    -0.89070
C557        C  0.69581397  0.82319989  0.21474892     0.84840
O558        O  0.71189033  0.78845836  0.10007726    -0.67270
O559        O  0.71977879  0.79238743  0.28686735    -0.86560
C560        C  0.70003758  0.79314595  0.11089467     0.85670
C561        C  0.74379981  0.84301044  0.10360025     1.07240
H562        H  0.69803425  0.78835669  0.19981522     0.39040
O563        O  0.71060497  0.79829796  0.21083751    -1.09220
O564        O  0.74819286  0.81326186  0.23904410    -0.65870
Ni565      Ni  0.72855796  0.79113225  0.20296715     1.26350
O566        O  0.70507526  0.80680367  0.13649774    -0.66100
O567        O  0.71448423  0.77022906  0.24492753    -0.78390
C568        C  0.74674965  0.77805823  0.15288781     0.85050
O569        O  0.74609801  0.78363300  0.18910791    -0.65570
Ni570      Ni  0.70774392  0.80416625  0.26539331     1.27450
Ni571      Ni  0.72533197  0.82084380  0.17642254     1.26060
H572        H  0.75380002  0.82052601  0.16798218     0.39590
O573        O  0.84463180  0.12115071  0.30630649    -0.80360
O574        O  0.79674718  0.04191383  0.36806969    -0.65050
O575        O  0.81634565  0.09473765  0.35365226    -1.11650
C576        C  0.86477550  0.10884341  0.44732477     1.06530
O577        O  0.80064579  0.04577296  0.43623043    -0.78260
O578        O  0.80912101  0.08147750  0.45782744    -0.65840
Ni579      Ni  0.81772967  0.10529386  0.30101362     1.34870
C580        C  0.81466431  0.09879655  0.44971396     0.85260
O581        O  0.78320800  0.06080717  0.32045242    -0.78800
O582        O  0.79072102  0.08963834  0.29565860    -0.89070
C583        C  0.79434668  0.03506878  0.40412493     0.84840
O584        O  0.81960171  0.08673642  0.27092583    -0.67270
O585        O  0.84946898  0.09514473  0.46678942    -0.86560
C586        C  0.82954227  0.08046182  0.28320282     0.85670
C587        C  0.77868911  0.07164126  0.30137847     1.07240
H588        H  0.83662445  0.07291577  0.38212121     0.39040
O589        O  0.82852574  0.07716032  0.39274399    -1.09220
O590        O  0.83010225  0.10957882  0.42843730    -0.65870
Ni591      Ni  0.84055951  0.10377877  0.38169228     1.26350
O592        O  0.82434993  0.07030551  0.31545169    -0.66100
O593        O  0.86371561  0.11148138  0.40992048    -0.78390
C594        C  0.84841008  0.13329099  0.33385855     0.85050
O595        O  0.85176022  0.13013169  0.36884628    -0.65570
Ni596      Ni  0.82453733  0.07083992  0.44890689     1.27450
Ni597      Ni  0.80611508  0.06831652  0.35762888     1.26060
H598        H  0.80787274  0.09616743  0.37156828     0.39590
O599        O  0.71848518  0.86177634  0.45478572    -0.80360
O600        O  0.75209603  0.94126836  0.44173889    -0.65050
O601        O  0.71481662  0.88785113  0.42638878    -1.11650
C602        C  0.75933313  0.88866639  0.33192481     1.06530
O603        O  0.75997999  0.94651997  0.37448808    -0.78260
O604        O  0.73402836  0.91613460  0.32930170    -0.65840
Ni605      Ni  0.70312850  0.87147743  0.47117700     1.34870
C606        C  0.71853774  0.89905309  0.32954390     0.85260
O607        O  0.71460989  0.91510279  0.47691461    -0.78800
O608        O  0.68950432  0.88338513  0.48493327    -0.89070
C609        C  0.75898513  0.95229258  0.41037260     0.84840
O610        O  0.72061920  0.88637287  0.51308455    -0.67270
O611        O  0.76182637  0.90475271  0.32007033    -0.86560
C612        C  0.73886817  0.89649584  0.50827236     0.85670
C613        C  0.69678569  0.90160662  0.48939137     1.07240
H614        H  0.76103195  0.91298246  0.41280204     0.39040
O615        O  0.74966364  0.91076572  0.39896677    -1.09220
O616        O  0.71809908  0.88482357  0.34584842    -0.65870
Ni617      Ni  0.73171883  0.88368420  0.39297585     1.26350
O618        O  0.74670611  0.90879209  0.47926081    -0.66100
O619        O  0.74899743  0.88004046  0.36288047    -0.78390
C620        C  0.70917349  0.84999128  0.42630951     0.85050
O621        O  0.71410535  0.85634866  0.39077263    -0.65570
Ni622      Ni  0.75956771  0.92490568  0.34941876     1.27450
Ni623      Ni  0.73318211  0.91399648  0.43739170     1.26060
H624        H  0.70436797  0.88637904  0.41039596     0.39590
O625        O  0.45336916  0.06155211  0.32905279    -0.80360
O626        O  0.51265698  0.04033511  0.27302099    -0.65050
O627        O  0.48517233  0.06315420  0.29759589    -1.11650
C628        C  0.45028866  0.02344007  0.18116561     1.06530
O629        O  0.51644143  0.05097895  0.21050250    -0.78260
O630        O  0.49165380  0.05647574  0.17028924    -0.65840
Ni631      Ni  0.47394615  0.05896375  0.35053116     1.34870
C632        C  0.50029916  0.07255438  0.18871098     0.85260
O633        O  0.51670421  0.06495155  0.32846057    -0.78800
O634        O  0.49475087  0.05767475  0.37775975    -0.89070
C635        C  0.52230346  0.04597343  0.23993250     0.84840
O636        O  0.45793853  0.03107578  0.34485620    -0.67270
O637        O  0.46298321  0.01912900  0.18130211    -0.86560
C638        C  0.46516298  0.02096174  0.33928312     0.85670
C639        C  0.51179686  0.06211693  0.36542962     1.07240
H640        H  0.47000691  0.02445781  0.25567479     0.39040
O641        O  0.48000662  0.03741318  0.24659687    -1.09220
O642        O  0.49205953  0.07402292  0.22077125    -0.65870
Ni643      Ni  0.46892001  0.05196423  0.25032763     1.26350
O644        O  0.48200279  0.02826609  0.32218432    -0.66100
O645        O  0.45225476  0.03820093  0.20133696    -0.78390
C646        C  0.45091138  0.06815254  0.29600048     0.85050
O647        O  0.45748498  0.06678049  0.26089521    -0.65570
Ni648      Ni  0.48945689  0.03488782  0.19586803     1.27450
Ni649      Ni  0.49847487  0.05100857  0.28738392     1.26060
H650        H  0.49427045  0.07706107  0.29426092     0.39590
O651        O  0.41075346  0.11794341  0.28726257    -0.80360
O652        O  0.38553615  0.17284225  0.34092978    -0.65050
O653        O  0.40959265  0.14598301  0.32806482    -1.11650
C654        C  0.35919978  0.09922604  0.42334149     1.06530
O655        O  0.37251743  0.16230299  0.40029125    -0.78260
O656        O  0.38725907  0.14714390  0.44274915    -0.65840
Ni657      Ni  0.41270054  0.14179641  0.27212424     1.34870
C658        C  0.40437932  0.15103506  0.43519152     0.85260
O659        O  0.41802943  0.18142807  0.30902745    -0.78800
O660        O  0.41667601  0.16667539  0.25197117    -0.89070
C661        C  0.37144594  0.16696132  0.36488702     0.84840
O662        O  0.38486890  0.12715932  0.26137355    -0.67270
O663        O  0.35460853  0.11135421  0.42735888    -0.86560
C664        C  0.37470322  0.13439106  0.26583287     0.85670
C665        C  0.42038142  0.18209922  0.27110810     1.07240
H666        H  0.36642206  0.12724245  0.34418217     0.39040
O667        O  0.37683653  0.13531312  0.36286862    -1.09220
O668        O  0.40825209  0.14225306  0.40782992    -0.65870
Ni669      Ni  0.39217776  0.12445410  0.36354867     1.26350
O670        O  0.38125496  0.14967818  0.28714835    -0.66100
O671        O  0.37403265  0.10248103  0.40127541    -0.78390
C672        C  0.41363818  0.11165024  0.32025831     0.85050
O673        O  0.40860548  0.11448275  0.35586925    -0.65570
Ni674      Ni  0.36437190  0.13681616  0.41165476     1.27450
Ni675      Ni  0.39735356  0.15915915  0.33541147     1.26060
H676        H  0.42258587  0.15361713  0.33948603     0.39590
O677        O  0.51342255  0.45678645  0.95021970    -0.80360
O678        O  0.46688334  0.37573840  0.01305527    -0.65050
O679        O  0.48402549  0.42835327  0.99852535    -1.11650
C680        C  0.52846137  0.44368128  0.10053408     1.06530
O681        O  0.46690662  0.37923463  0.08147103    -0.78260
O682        O  0.47419889  0.41462416  0.10536424    -0.65840
Ni683      Ni  0.48601529  0.43891683  0.44628569     1.34870
C684        C  0.48012519  0.43223720  0.09905297     0.85260
O685        O  0.45370504  0.39324838  0.46112773    -0.78800
O686        O  0.45870440  0.42176906  0.44226916    -0.89070
C687        C  0.46317090  0.36878789  0.04931499     0.84840
O688        O  0.48964640  0.42114007  0.41691964    -0.67270
O689        O  0.51349973  0.42890212  0.11831241    -0.86560
C690        C  0.50030348  0.41585324  0.43034996     0.85670
C691        C  0.44816211  0.40341583  0.44342860     1.07240
H692        H  0.50465151  0.40786666  0.03299281     0.39040
O693        O  0.49569638  0.41140343  0.04167863    -1.09220
O694        O  0.49430567  0.44297121  0.07419985    -0.65870
Ni695      Ni  0.50711173  0.43768739  0.02999055     1.26350
O696        O  0.49528011  0.40590826  0.46306255    -0.66100
O697        O  0.52919102  0.44587575  0.06235292    -0.78390
C698        C  0.51872502  0.46882208  0.97900810     0.85050
O699        O  0.51871295  0.46361971  0.01477998    -0.65570
Ni700      Ni  0.48998157  0.40435122  0.09737785     1.27450
Ni701      Ni  0.47496406  0.40190371  0.00242585     1.26060
H702        H  0.47481152  0.42977302  0.01404426     0.39590
O703        O  0.37149914  0.19086482  0.14686754    -0.80360
O704        O  0.42291766  0.27823695  0.11240049    -0.65050
O705        O  0.38155233  0.22433426  0.11366032    -1.11650
C706        C  0.42059305  0.21472293  0.02321353     1.06530
O707        O  0.43006129  0.27835571  0.04561935    -0.78260
O708        O  0.40040181  0.24612397  0.01080929    -0.65840
Ni709      Ni  0.36848587  0.21081990  0.16317598     1.34870
C710        C  0.38508298  0.22903698  0.01282804     0.85260
O711        O  0.38678233  0.25808134  0.15124897    -0.78800
O712        O  0.36409593  0.22989467  0.18160962    -0.89070
C713        C  0.43035129  0.28702462  0.07844007     0.84840
O714        O  0.39131468  0.22066481  0.19395377    -0.67270
O715        O  0.42362419  0.23012500  0.00614190    -0.86560
C716        C  0.40931208  0.23334414  0.18665388     0.85670
C717        C  0.37139358  0.24766167  0.17421792     1.07240
H718        H  0.42785966  0.24614075  0.09662251     0.39040
O719        O  0.41643076  0.24348384  0.08243430    -1.09220
O720        O  0.38419236  0.21583909  0.03436901    -0.65870
Ni721      Ni  0.39697503  0.21651790  0.08414487     1.26350
O722        O  0.41533319  0.24737361  0.16130955    -0.66100
O723        O  0.41297300  0.21004869  0.05809010    -0.78390
C724        C  0.36485547  0.18412310  0.11229102     0.85050
O725        O  0.37750412  0.18927249  0.08492965    -0.65570
Ni726      Ni  0.42574791  0.25376214  0.02890897     1.27450
Ni727      Ni  0.40216378  0.25113801  0.11634145     1.26060
H728        H  0.37157170  0.22314711  0.09623552     0.39590
O729        O  0.62415506  0.54363724  0.33101567    -0.80360
O730        O  0.53881635  0.48642026  0.27356327    -0.65050
O731        O  0.59308613  0.51369626  0.29214605    -1.11650
C732        C  0.59194946  0.56134747  0.20938911     1.06530
O733        O  0.54586923  0.49418197  0.20970548    -0.78260
O734        O  0.58002376  0.52475982  0.17725826    -0.65840
Ni735      Ni  0.60147186  0.51816749  0.34638737     1.34870
C736        C  0.58620531  0.51406652  0.18293408     0.85260
O737        O  0.56089727  0.47766173  0.31128017    -0.78800
O738        O  0.57937922  0.49207189  0.36555561    -0.89070
C739        C  0.53309659  0.48542791  0.23759219     0.84840
O740        O  0.58823540  0.53051129  0.36053602    -0.67270
O741        O  0.57331908  0.54941841  0.21187030    -0.86560
C742        C  0.57014786  0.52366550  0.35671518     0.85670
C743        C  0.56543854  0.47672233  0.34734258     1.07240
H744        H  0.57010679  0.53146562  0.27811108     0.39040
O745        O  0.57206229  0.52356971  0.25955945    -1.09220
O746        O  0.59700505  0.51776552  0.21349159    -0.65870
Ni747      Ni  0.59942559  0.53528317  0.25771705     1.26350
O748        O  0.55927857  0.50876136  0.33450555    -0.66100
O749        O  0.60417209  0.55699551  0.22139747    -0.78390
C750        C  0.63450718  0.54908229  0.29809946     0.85050
O751        O  0.62696624  0.54624595  0.26275343    -0.65570
Ni752      Ni  0.55956450  0.52193352  0.21073570     1.27450
Ni753      Ni  0.56578493  0.50006646  0.28508472     1.26060
H754        H  0.59783115  0.50637411  0.27976721     0.39590
O755        O  0.71993075  0.56904363  0.29289598    -0.80360
O756        O  0.80626667  0.61922418  0.31169702    -0.65050
O757        O  0.75375545  0.57897256  0.32532038    -1.11650
C758        C  0.75262961  0.62516796  0.42042763     1.06530
O759        O  0.80591588  0.62679621  0.37337727    -0.78260
O760        O  0.78056875  0.61551063  0.43281351    -0.65840
Ni761      Ni  0.74365123  0.57339006  0.27055221     1.34870
C762        C  0.77889154  0.59953476  0.42720919     0.85260
O763        O  0.78683540  0.58306263  0.29540414    -0.78800
O764        O  0.76732869  0.57570176  0.24357557    -0.89070
C765        C  0.81313748  0.63149866  0.33876785     0.84840
O766        O  0.75104513  0.59964734  0.25588279    -0.67270
O767        O  0.76857251  0.63742260  0.40205865    -0.86560
C768        C  0.76889233  0.61376159  0.25436116     0.85670
C769        C  0.78273371  0.57760165  0.25906833     1.07240
H770        H  0.76683201  0.61975793  0.32914565     0.39040
O771        O  0.77097497  0.61387912  0.34773896    -1.09220
O772        O  0.76534865  0.58721960  0.40349980    -0.65870
Ni773      Ni  0.74815747  0.59153979  0.37033478     1.26350
O774        O  0.78107775  0.61078737  0.26871907    -0.66100
O775        O  0.74419672  0.60644403  0.41491436    -0.78390
C776        C  0.71659083  0.57939771  0.31613237     0.85050
O777        O  0.73002952  0.59370382  0.33715167    -0.65570
Ni778      Ni  0.78780413  0.63261234  0.38743462     1.27450
Ni779      Ni  0.78012209  0.59912442  0.31995527     1.26060
H780        H  0.75264273  0.56750332  0.33573265     0.39590
O781        O  0.83665190  0.62202142  0.12716662    -0.80360
O782        O  0.89768994  0.60597097  0.11159923    -0.65050
O783        O  0.87197014  0.63207315  0.10201668    -1.11650
C784        C  0.84305978  0.59633831  0.98756072     1.06530
O785        O  0.90525865  0.61275976  0.04547530    -0.78260
O786        O  0.89643188  0.63541328  0.01257567    -0.65840
Ni787      Ni  0.86257527  0.63938998  0.14646149     1.34870
C788        C  0.88759768  0.64393889  0.01283216     0.85260
O789        O  0.90109422  0.63804491  0.15626234    -0.78800
O790        O  0.88883897  0.65662361  0.16492624    -0.89070
C791        C  0.90448700  0.60385730  0.07768170     0.84840
O792        O  0.85895301  0.62009361  0.18316156    -0.67270
O793        O  0.86125746  0.60326066  0.97847544    -0.86560
C794        C  0.85302993  0.60298264  0.17237091     0.85670
C795        C  0.90244861  0.65371770  0.16966532     1.07240
H796        H  0.86231769  0.59053872  0.07126305     0.39040
O797        O  0.87006701  0.60423796  0.06443160    -1.09220
O798        O  0.86934753  0.63446843  0.02263614    -0.65870
Ni799      Ni  0.85404428  0.61329338  0.06246109     1.26350
O800        O  0.86253018  0.60002100  0.14498332    -0.66100
O801        O  0.83761766  0.59432271  0.02408195    -0.78390
C802        C  0.83288469  0.62626640  0.09334053     0.85050
O803        O  0.83706780  0.62128032  0.06115258    -0.65570
Ni804      Ni  0.88332943  0.60779389  0.01382257     1.27450
Ni805      Ni  0.88502625  0.61983923  0.11064979     1.26060
H806        H  0.88186729  0.64389997  0.08902714     0.39590
O807        O  0.99979117  0.54452164  0.00241281    -0.80360
O808        O  0.94019856  0.55369611  0.01552262    -0.65050
O809        O  0.96585413  0.54163619  0.01156227    -1.11650
C810        C  0.93665789  0.48888336  0.09682668     1.06530
O811        O  0.92859247  0.54321747  0.08029579    -0.78260
O812        O  0.95878059  0.54307971  0.11029488    -0.65840
Ni813      Ni  0.98670839  0.55293133  0.47497488     1.34870
C814        C  0.97300776  0.54129443  0.10411798     0.85260
O815        O  0.94864904  0.54458556  0.43308138    -0.78800
O816        O  0.97653497  0.56611086  0.45375465    -0.89070
C817        C  0.93305556  0.55467776  0.05009035     0.84840
O818        O  0.97185886  0.52761834  0.44412466    -0.67270
O819        O  0.93358897  0.50104998  0.11488413    -0.86560
C820        C  0.95413256  0.51193060  0.44744544     0.85670
C821        C  0.96654712  0.55786072  0.42396647     1.07240
H822        H  0.92192810  0.50501807  0.03540348     0.39040
O823        O  0.93367684  0.51768614  0.04092669    -1.09220
O824        O  0.97082414  0.52810530  0.08113651    -0.65870
Ni825      Ni  0.95550038  0.51629112  0.03373035     1.26350
O826        O  0.94051915  0.51185855  0.46664835    -0.66100
O827        O  0.94308469  0.49181923  0.06013835    -0.78390
C828        C  0.99450767  0.52875388  0.01848347     0.85050
O829        O  0.97681583  0.51442829  0.02062192    -0.65570
Ni830      Ni  0.93163604  0.52289300  0.09641595     1.27450
Ni831      Ni  0.94067383  0.53269684  0.99015586     1.26060
H832        H  0.96871149  0.55106992  0.03257238     0.39590
O833        O  0.88870122  0.28600669  0.30485350    -0.80360
O834        O  0.83024386  0.19959600  0.34394296    -0.65050
O835        O  0.85867970  0.25391220  0.33967896    -1.11650
C836        C  0.90481024  0.24874603  0.41899699     1.06530
O837        O  0.84227272  0.19935006  0.40192492    -0.78260
O838        O  0.86587737  0.22990526  0.44699335    -0.65840
Ni839      Ni  0.86376253  0.26313599  0.28562205     1.34870
C840        C  0.85632577  0.23793028  0.44602858     0.85260
O841        O  0.82225482  0.22427771  0.31874554    -0.78800
O842        O  0.83793042  0.24080833  0.26338380    -0.89070
C843        C  0.83627637  0.19225086  0.36716374     0.84840
O844        O  0.87673906  0.25042627  0.26795438    -0.67270
O845        O  0.89624471  0.23445287  0.39621303    -0.86560
C846        C  0.86778354  0.23193793  0.26726408     0.85670
C847        C  0.82216119  0.22663285  0.28113378     1.07240
H848        H  0.87617513  0.23288188  0.34115340     0.39040
O849        O  0.86807911  0.23196395  0.36352097    -1.09220
O850        O  0.86075653  0.25123319  0.41968385    -0.65870
Ni851      Ni  0.87974686  0.25835522  0.37477201     1.26350
O852        O  0.85250507  0.22173905  0.28946052    -0.66100
O853        O  0.90025518  0.26142338  0.41535551    -0.78390
C854        C  0.89556401  0.29471910  0.33945792     0.85050
O855        O  0.89083846  0.28569987  0.37404848    -0.65570
Ni856      Ni  0.86923014  0.21664805  0.40201464     1.27450
Ni857      Ni  0.84430394  0.22684501  0.34150429     1.26060
H858        H  0.85125574  0.25834979  0.35320897     0.39590
O859        O  0.91425924  0.37647738  0.31382734    -0.80360
O860        O  0.97269126  0.46255515  0.31480567    -0.65050
O861        O  0.92956826  0.41210520  0.29632118    -1.11650
C862        C  0.97762728  0.41484757  0.19974179     1.06530
O863        O  0.96984971  0.46242410  0.25057451    -0.78260
O864        O  0.96376521  0.44081825  0.18494801    -0.65840
Ni865      Ni  0.92032019  0.39820583  0.34693471     1.34870
C866        C  0.94586893  0.43433797  0.18907908     0.85260
O867        O  0.93724068  0.44408072  0.33886253    -0.78800
O868        O  0.92666412  0.42057292  0.38364535    -0.89070
C869        C  0.97871412  0.47142328  0.28214462     0.84840
O870        O  0.94423114  0.40073058  0.36221528    -0.67270
O871        O  0.98844852  0.43246641  0.21192465    -0.86560
C872        C  0.96063933  0.41670510  0.36402046     0.85670
C873        C  0.93269405  0.43820750  0.37470862     1.07240
H874        H  0.97250007  0.42609855  0.28522868     0.39040
O875        O  0.96444553  0.42918702  0.27072557    -1.09220
O876        O  0.93558957  0.42147238  0.21604863    -0.65870
Ni877      Ni  0.94185595  0.40628169  0.25061001     1.26350
O878        O  0.96289479  0.43214726  0.35072959    -0.66100
O879        O  0.95855777  0.40380686  0.20735284    -0.78390
C880        C  0.92810215  0.37437159  0.30418137     0.85050
O881        O  0.94353333  0.38800308  0.28471990    -0.65570
Ni882      Ni  0.98013221  0.44823722  0.23093816     1.27450
Ni883      Ni  0.95125261  0.43716713  0.30613903     1.26060
H884        H  0.91911513  0.41292163  0.28578505     0.39590
O885        O  0.54553353  0.04282160  0.00449755    -0.80360
O886        O  0.62043408  0.06960018  0.04750456    -0.65050
O887        O  0.57832234  0.04909651  0.03464834    -1.11650
C888        C  0.57071789  0.09069306  0.11561510     1.06530
O889        O  0.63283003  0.09952689  0.07324529    -0.78260
O890        O  0.60557250  0.07292726  0.12204035    -0.65840
Ni891      Ni  0.55963189  0.03095378  0.49827837     1.34870
C892        C  0.58917461  0.05683946  0.12457565     0.85260
O893        O  0.60333022  0.04920858  0.47335992    -0.78800
O894        O  0.57534978  0.02137144  0.49300416    -0.89070
C895        C  0.63477911  0.08575416  0.06279151     0.84840
O896        O  0.57137475  0.04453276  0.44942286    -0.67270
O897        O  0.58757266  0.09515779  0.12843416    -0.86560
C898        C  0.57371229  0.06062966  0.44731423     0.85670
C899        C  0.59157332  0.02989660  0.47343579     1.07240
H900        H  0.59689234  0.09484621  0.03349568     0.39040
O901        O  0.59682848  0.08483794  0.04852975    -1.09220
O902        O  0.57387139  0.05542761  0.11189111    -0.65870
Ni903      Ni  0.57052096  0.06457367  0.06037154     1.26350
O904        O  0.58661419  0.07363632  0.47053556    -0.66100
O905        O  0.56385483  0.08089724  0.08362599    -0.78390
C906        C  0.53543034  0.03649955  0.03637441     0.85050
O907        O  0.54384679  0.04434197  0.06893693    -0.65570
Ni908      Ni  0.61014050  0.09647921  0.09874749     1.27450
Ni909      Ni  0.60201002  0.06935231  0.00955330     1.26060
H910        H  0.58069655  0.04207721  0.05398801     0.39590
O911        O  0.81153153  0.14056532  0.15233321    -0.80360
O912        O  0.72353612  0.11766105  0.13327886    -0.65050
O913        O  0.77553425  0.12926240  0.13346600    -1.11650
C914        C  0.79106379  0.18148729  0.04574953     1.06530
O915        O  0.72687318  0.11916528  0.06542174    -0.78260
O916        O  0.75976187  0.12917934  0.02540687    -0.65840
Ni917      Ni  0.78779041  0.13077995  0.18315275     1.34870
C918        C  0.77652304  0.13211201  0.02939381     0.85260
O919        O  0.74111488  0.10037593  0.17258159    -0.78800
O920        O  0.76432251  0.11831990  0.21575745    -0.89070
C921        C  0.71624845  0.11527120  0.09757107     0.84840
O922        O  0.79018125  0.15502741  0.18914016    -0.67270
O923        O  0.77410662  0.16887041  0.03054134    -0.86560
C924        C  0.77550201  0.15663868  0.19267705     0.85670
C925        C  0.75028551  0.10156327  0.20498623     1.07240
H926        H  0.75850709  0.15538559  0.11623660     0.39040
O927        O  0.76016837  0.14598093  0.10253212    -1.09220
O928        O  0.78828393  0.14292145  0.05694244    -0.65870
Ni929      Ni  0.78647297  0.15423727  0.10665423     1.26350
O930        O  0.75774299  0.14274950  0.18225392    -0.66100
O931        O  0.79633919  0.17808803  0.07891222    -0.78390
C932        C  0.81699476  0.15056059  0.11998005     0.85050
O933        O  0.81276192  0.16275791  0.11389640    -0.65570
Ni934      Ni  0.75046516  0.14374168  0.04963009     1.27450
Ni935      Ni  0.74989358  0.12345196  0.13711991     1.26060
H936        H  0.77537615  0.11988355  0.11549072     0.39590
C937        C  0.65504235  0.09028097  0.06775232    -0.04810
C938        C  0.67062134  0.10705511  0.04776518    -0.01920
C939        C  0.69022576  0.11579778  0.05996669     0.03070
C940        C  0.69497903  0.10720395  0.09059541    -0.04800
C941        C  0.67956164  0.09002362  0.10974397    -0.01910
C942        C  0.65965191  0.08191706  0.09921252     0.03060
C943        C  0.66636827  0.11586331  0.01519953     0.37710
C944        C  0.68415258  0.08054070  0.13992973     0.37700
C945        C  0.64412250  0.06571114  0.12263421     0.36130
C946        C  0.70548621  0.13431362  0.04198285     0.36130
N947        N  0.63233928  0.05292153  0.14268961    -0.38690
N948        N  0.71763163  0.14910898  0.02785901    -0.38690
N949        N  0.68781223  0.07292149  0.16391476    -0.38140
N950        N  0.66296962  0.12289155  0.98933308    -0.38140
C951        C  0.83905508  0.23000882  0.47528854    -0.04810
C952        C  0.81962918  0.22019531  0.46074090    -0.01920
C953        C  0.80349104  0.20492742  0.48379463     0.03070
C954        C  0.80632531  0.20052846  0.52371604    -0.04800
C955        C  0.82505118  0.21403154  0.04130548    -0.01910
C956        C  0.84143215  0.22772007  0.51665119     0.03060
C957        C  0.81613497  0.22636638  0.42284681     0.37710
C958        C  0.82808968  0.21395437  0.08464164     0.37700
C959        C  0.86096409  0.23938243  0.53370504     0.36130
C960        C  0.78415682  0.19387408  0.46592627     0.36130
N961        N  0.87653552  0.24864405  0.04716476    -0.38690
N962        N  0.76872985  0.18510531  0.45154505    -0.38690
N963        N  0.83081098  0.21397049  0.11906897    -0.38140
N964        N  0.81300594  0.23188079  0.39378814    -0.38140
C965        C  0.77975329  0.17460114  0.21440224    -0.04810
C966        C  0.77934133  0.17453605  0.25706310    -0.01920
C967        C  0.79069551  0.19214437  0.27907105     0.03070
C968        C  0.80461417  0.21005663  0.25844095    -0.04800
C969        C  0.80267381  0.21037899  0.21582592    -0.01910
C970        C  0.78955142  0.19281712  0.19438262     0.03060
C971        C  0.76793573  0.15607511  0.27842990     0.37710
C972        C  0.81381334  0.22867588  0.19398038     0.37700
C973        C  0.78444340  0.19375726  0.15311909     0.36130
C974        C  0.78803355  0.19114434  0.32298225     0.36130
N975        N  0.77979899  0.19528674  0.12115169    -0.38690
N976        N  0.78557868  0.18994833  0.35791432    -0.38690
N977        N  0.82266213  0.24327412  0.17642344    -0.38140
N978        N  0.75891104  0.14138905  0.29557877    -0.38140
C979        C  0.92591090  0.35631362  0.31955511    -0.04810
C980        C  0.93040940  0.34535012  0.29447174    -0.01920
C981        C  0.92236686  0.32559380  0.30381508     0.03070
C982        C  0.90930225  0.31647217  0.33766943    -0.04800
C983        C  0.90731321  0.32829317  0.36591026    -0.01910
C984        C  0.91588928  0.34817879  0.35730112     0.03060
C985        C  0.94217513  0.35389895  0.25764237     0.37710
C986        C  0.89519016  0.31985440  0.40237485     0.37700
C987        C  0.91361766  0.35997748  0.38705143     0.36130
C988        C  0.92751606  0.31474732  0.27795487     0.36130
N989        N  0.91164411  0.36913736  0.41112309    -0.38690
N990        N  0.93222245  0.30673583  0.25671656    -0.38690
N991        N  0.88552367  0.31323182  0.43147750    -0.38140
N992        N  0.95158527  0.36069191  0.22829283    -0.38140
C993        C  0.93665448  0.45377351  0.40466589    -0.04810
C994        C  0.92255077  0.45829726  0.41016116    -0.01920
C995        C  0.92818140  0.47722459  0.42278756     0.03070
C996        C  0.94839257  0.49235669  0.42997155    -0.04800
C997        C  0.96242202  0.48766078  0.42454918    -0.01910
C998        C  0.95651749  0.46853206  0.41345796     0.03060
C999        C  0.90219934  0.44358380  0.40066222     0.37710
C1000       C  0.98324890  0.50259515  0.42845754     0.37700
C1001       C  0.97158242  0.46463744  0.41020172     0.36130
C1002       C  0.91295901  0.48113026  0.42554860     0.36130
N1003       N  0.98483612  0.46323885  0.40903080    -0.38690
N1004       N  0.90075050  0.48414782  0.42762471    -0.38690
N1005       N  0.99994458  0.51434879  0.43032853    -0.38140
N1006       N  0.88598417  0.43183077  0.39305063    -0.38140
C1007       C  0.93445559  0.47161868  0.11962598    -0.04810
C1008       C  0.93028248  0.46884445  0.16227053    -0.01920
C1009       C  0.93187859  0.45502890  0.18423677     0.03070
C1010       C  0.93816144  0.44399300  0.16466111    -0.04800
C1011       C  0.94090155  0.44557006  0.12204088    -0.01910
C1012       C  0.93849628  0.45866354  0.09954466     0.03060
C1013       C  0.92494452  0.48054559  0.18458728     0.37710
C1014       C  0.94673202  0.43389357  0.10119394     0.37700
C1015       C  0.94070346  0.45873617  0.05556148     0.36130
C1016       C  0.92817017  0.45310572  0.22780296     0.36130
N1017       N  0.94251169  0.45865814  0.02053515    -0.38690
N1018       N  0.92509502  0.45170451  0.26253049    -0.38690
N1019       N  0.95146583  0.42467136  0.08454684    -0.38140
N1020       N  0.92071175  0.48982462  0.20275616    -0.38140
C1021       C  0.91149448  0.59083403  0.07307309    -0.04810
C1022       C  0.90517601  0.57823756  0.03879743    -0.01920
C1023       C  0.91356304  0.56771411  0.02955259     0.03070
C1024       C  0.92773380  0.56896081  0.05538309    -0.04800
C1025       C  0.93368856  0.58107762  0.09031528    -0.01910
C1026       C  0.92566638  0.59211320  0.09899693     0.03060
C1027       C  0.88932269  0.57535034  0.01370308     0.37710
C1028       C  0.94821890  0.58230966  0.11708358     0.37700
C1029       C  0.93220972  0.60496102  0.13404507     0.36130
C1030       C  0.90676281  0.55475074  0.49449643     0.36130
N1031       N  0.93738191  0.61519091  0.16206989    -0.38690
N1032       N  0.90137750  0.54444014  0.46658649    -0.38690
N1033       N  0.95979407  0.58325780  0.13843254    -0.38140
N1034       N  0.87665561  0.57287163  0.49364463    -0.38140
C1035       C  0.79527203  0.59733803  0.44143882    -0.04810
C1036       C  0.81493206  0.61409826  0.44484712    -0.01920
C1037       C  0.83098776  0.61210920  0.44593521     0.03070
C1038       C  0.82819510  0.59455897  0.45834625    -0.04800
C1039       C  0.80857766  0.57777661  0.45876240    -0.01910
C1040       C  0.79247685  0.57893509  0.44728838     0.03060
C1041       C  0.81902844  0.63353920  0.44912168     0.37710
C1042       C  0.80499732  0.55934236  0.47154777     0.37700
C1043       C  0.77288535  0.56134336  0.44506708     0.36130
C1044       C  0.85044390  0.62808913  0.43362294     0.36130
N1045       N  0.75722175  0.54727893  0.44330830    -0.38690
N1046       N  0.86583665  0.64068363  0.42238450    -0.38690
N1047       N  0.80212712  0.54461539  0.48185487    -0.38140
N1048       N  0.82206464  0.64896486  0.45217707    -0.38140
C1049       C  0.79822105  0.57632322  0.23508608    -0.04810
C1050       C  0.79849342  0.57522550  0.19204543    -0.01920
C1051       C  0.81600456  0.58008474  0.17059999     0.03070
C1052       C  0.83377850  0.58719483  0.19145187    -0.04800
C1053       C  0.83256744  0.58506269  0.23398852    -0.01910
C1054       C  0.81484033  0.57892098  0.25556246     0.03060
C1055       C  0.78100823  0.56942379  0.16951967     0.37710
C1056       C  0.84999480  0.59001148  0.25582789     0.37700
C1057       C  0.81423660  0.57580076  0.29913038     0.36130
C1058       C  0.81572496  0.57800221  0.12687940     0.36130
N1059       N  0.81387342  0.57337440  0.33384881    -0.38690
N1060       N  0.81484184  0.57566596  0.09204038    -0.38690
N1061       N  0.86379471  0.59381780  0.27348518    -0.38140
N1062       N  0.76705847  0.56473265  0.15135877    -0.38140
C1063       C  0.65575648  0.55771935  0.30271228    -0.04810
C1064       C  0.66984449  0.57804819  0.30091024    -0.01920
C1065       C  0.68983043  0.58580031  0.30941695     0.03070
C1066       C  0.69570705  0.57311345  0.31856829    -0.04800
C1067       C  0.68122660  0.55295993  0.32342009    -0.01910
C1068       C  0.66145914  0.54530772  0.31507708     0.03060
C1069       C  0.66372737  0.59089093  0.29062175     0.37710
C1070       C  0.68667133  0.53999856  0.33755131     0.37700
C1071       C  0.64690970  0.52445937  0.31877296     0.36130
C1072       C  0.70417220  0.60667587  0.30926410     0.36130
N1073       N  0.63529530  0.50787215  0.32168664    -0.38690
N1074       N  0.71553391  0.62337630  0.30979920    -0.38690
N1075       N  0.69102881  0.52970936  0.34886658    -0.38140
N1076       N  0.65881703  0.60112341  0.28233528    -0.38140
C1077       C  0.57725075  0.49587621  0.15731974    -0.04810
C1078       C  0.57126145  0.47735394  0.17335490    -0.01920
C1079       C  0.55573403  0.45980771  0.15464722     0.03070
C1080       C  0.54475590  0.46083217  0.12332719    -0.04800
C1081       C  0.55045770  0.47940077  0.10977332    -0.01910
C1082       C  0.56834772  0.49605769  0.12123543     0.03060
C1083       C  0.58066438  0.47616705  0.20889362     0.37710
C1084       C  0.53584360  0.48188778  0.09299516     0.37700
C1085       C  0.57653584  0.51387756  0.09801503     0.36130
C1086       C  0.55060795  0.44094609  0.16843226     0.36130
N1087       N  0.58344675  0.52816953  0.07965633    -0.38690
N1088       N  0.54648022  0.42581749  0.17926921    -0.38690
N1089       N  0.52354001  0.48373290  0.08287029    -0.38140
N1090       N  0.58808712  0.47484915  0.23708754    -0.38140
C1091       C  0.55241166  0.45717939  0.36868614    -0.04810
C1092       C  0.55289829  0.45488886  0.41130774    -0.01920
C1093       C  0.53721413  0.43792785  0.43113781     0.03070
C1094       C  0.51997052  0.42438971  0.40985336    -0.04800
C1095       C  0.52105361  0.42481690  0.36713249    -0.01910
C1096       C  0.53754169  0.44055549  0.34656048     0.03060
C1097       C  0.56906544  0.46989534  0.43526114     0.37710
C1098       C  0.50483654  0.40913620  0.34435633     0.37700
C1099       C  0.53871368  0.43945487  0.30259847     0.36130
C1100       C  0.53917730  0.43398995  0.47280356     0.36130
N1101       N  0.53953836  0.43846758  0.26754369    -0.38690
N1102       N  0.54157691  0.43054125  0.50526964    -0.38690
N1103       N  0.49202226  0.39664566  0.32588391    -0.38140
N1104       N  0.58191265  0.48181992  0.45463811    -0.38140
C1105       C  0.45425827  0.34769329  0.05551262    -0.04810
C1106       C  0.46515990  0.33971535  0.04491111    -0.01920
C1107       C  0.45785715  0.32022632  0.05482417     0.03070
C1108       C  0.43938806  0.30836676  0.07492272    -0.04800
C1109       C  0.42853821  0.31644747  0.08578735    -0.01910
C1110       C  0.43604598  0.33608479  0.07639802     0.03060
C1111       C  0.48424406  0.35178577  0.02484795     0.37710
C1112       C  0.40922145  0.30442290  0.10480951     0.37700
C1113       C  0.42474847  0.34422905  0.08713941     0.36130
C1114       C  0.46958908  0.31246668  0.04488443     0.36130
N1115       N  0.41574924  0.35074588  0.09560802    -0.38690
N1116       N  0.47895070  0.30628703  0.03699304    -0.38690
N1117       N  0.39375084  0.29505371  0.11985106    -0.38140
N1118       N  0.49945608  0.36145490  0.00888346    -0.38140
C1119       C  0.41988740  0.16796601  0.45911457    -0.04810
C1120       C  0.42961971  0.18658959  0.44088971    -0.01920
C1121       C  0.43133783  0.20261315  0.46203648     0.03070
C1122       C  0.42418216  0.20030112  0.50262013    -0.04800
C1123       C  0.41908768  0.18280318  0.52328836    -0.01910
C1124       C  0.41698891  0.16692959  0.50142760     0.03060
C1125       C  0.43803020  0.18919816  0.40049290     0.37710
C1126       C  0.41483054  0.18011713  0.06671709     0.37700
C1127       C  0.40981828  0.14861966  0.52184654     0.36130
C1128       C  0.44046514  0.22129907  0.44200224     0.36130
N1129       N  0.40415759  0.13420463  0.53886369    -0.38690
N1130       N  0.44790730  0.23632660  0.42629967    -0.38690
N1131       N  0.41104887  0.17762457  0.10115196    -0.38140
N1132       N  0.44561357  0.19171668  0.36895510    -0.38140
C1133       C  0.42501984  0.20062795  0.25006193    -0.04810
C1134       C  0.42344329  0.21488398  0.27185591    -0.01920
C1135       C  0.42167500  0.22868409  0.25081187     0.03070
C1136       C  0.42288068  0.22965144  0.20818031    -0.04800
C1137       C  0.42939768  0.21897343  0.18773215    -0.01910
C1138       C  0.42973766  0.20404592  0.20806387     0.03060
C1139       C  0.42328083  0.21555469  0.31592922     0.37710
C1140       C  0.43668404  0.22390073  0.14630140     0.37700
C1141       C  0.43546151  0.19264186  0.18589037     0.36130
C1142       C  0.41763612  0.24146468  0.27277523     0.36130
N1143       N  0.44017504  0.18361129  0.16831308    -0.38690
N1144       N  0.41447933  0.25172828  0.29018859    -0.38690
N1145       N  0.44366575  0.22797787  0.11398031    -0.38140
N1146       N  0.42320775  0.21621808  0.35110970    -0.38140
C1147       C  0.52123957  0.08766978  0.17468822    -0.04810
C1148       C  0.52497393  0.09161639  0.13275462    -0.01920
C1149       C  0.54278745  0.09579566  0.11449153     0.03070
C1150       C  0.55693612  0.09504479  0.13759737    -0.04800
C1151       C  0.55488643  0.09495131  0.18047909    -0.01910
C1152       C  0.53748844  0.09220881  0.19882187     0.03060
C1153       C  0.51017933  0.09109572  0.10825326     0.37710
C1154       C  0.57019267  0.09690651  0.20559274     0.37700
C1155       C  0.53628335  0.09394954  0.24237010     0.36130
C1156       C  0.54614162  0.10022873  0.07132057     0.36130
N1157       N  0.53593113  0.09627021  0.27705975    -0.38690
N1158       N  0.54873903  0.10373679  0.03688388    -0.38690
N1159       N  0.58263028  0.09865920  0.22532374    -0.38140
N1160       N  0.49856789  0.09103949  0.08865890    -0.38140
C1161       C  0.52574152  0.06116273  0.39199483    -0.04810
C1162       C  0.52708905  0.04491655  0.38793805    -0.01920
C1163       C  0.54229952  0.04471421  0.40640130     0.03070
C1164       C  0.55801879  0.06170415  0.42623590    -0.04800
C1165       C  0.55663530  0.07807840  0.43013152    -0.01910
C1166       C  0.54044734  0.07763260  0.41359861     0.03060
C1167       C  0.51316375  0.02810353  0.36366475     0.37710
C1168       C  0.57153402  0.09534874  0.45171061     0.37700
C1169       C  0.53909287  0.09431903  0.41802668     0.36130
C1170       C  0.54067531  0.02621076  0.40583110     0.36130
N1171       N  0.53794169  0.10759938  0.42173828    -0.38690
N1172       N  0.53906405  0.01136633  0.40551907    -0.38690
N1173       N  0.58336767  0.10917871  0.96902666    -0.38140
N1174       N  0.50309903  0.01419822  0.34461555    -0.38140
C1175       C  0.44031664  0.07841175  0.30005954    -0.04810
C1176       C  0.44798458  0.09655639  0.28069573    -0.01920
C1177       C  0.43955812  0.10740814  0.28820427     0.03070
C1178       C  0.42314042  0.10039623  0.31516235    -0.04800
C1179       C  0.41545951  0.08229479  0.33461000    -0.01910
C1180       C  0.42390410  0.07140118  0.32710633     0.03060
C1181       C  0.46528260  0.10469671  0.25439477     0.37710
C1182       C  0.39845790  0.07453521  0.36157821     0.37700
C1183       C  0.41526977  0.05264169  0.34671491     0.36130
C1184       C  0.44848613  0.12636611  0.26918895     0.36130
N1185       N  0.40836342  0.03767819  0.36240753    -0.38690
N1186       N  0.45563584  0.14147995  0.25402895    -0.38690
N1187       N  0.38489323  0.06835774  0.38311614    -0.38140
N1188       N  0.47909141  0.11120948  0.23346791    -0.38140
C1189       C  0.84349703  0.14757520  0.32960234    -0.04810
C1190       C  0.82459363  0.14348911  0.34067081    -0.01920
C1191       C  0.82244178  0.15872572  0.34970927     0.03070
C1192       C  0.83904999  0.17764105  0.35060808    -0.04800
C1193       C  0.85741087  0.18195001  0.33505596    -0.01910
C1194       C  0.85937038  0.16675254  0.32376244     0.03060
C1195       C  0.80712770  0.12442924  0.34786052     0.37710
C1196       C  0.87478290  0.20134273  0.33008612     0.37700
C1197       C  0.87821818  0.17073996  0.30899623     0.36130
C1198       C  0.80325632  0.15486857  0.36162654     0.36130
N1199       N  0.89315042  0.17386062  0.29733322    -0.38690
N1200       N  0.78812620  0.15183970  0.37134887    -0.38690
N1201       N  0.89007323  0.21539618  0.32336543    -0.38140
N1202       N  0.79154933  0.11118700  0.35636006    -0.38140
C1203       C  0.78341411  0.12310356  0.00096857    -0.04810
C1204       C  0.80131376  0.13514775  0.48010552    -0.01920
C1205       C  0.81133022  0.12735800  0.46266068     0.03070
C1206       C  0.80325374  0.10699299  0.46539983    -0.04800
C1207       C  0.78384483  0.09463626  0.48192027    -0.01910
C1208       C  0.77399705  0.10277398  0.99937057     0.03060
C1209       C  0.80927782  0.15577861  0.47588628     0.37710
C1210       C  0.77343109  0.07364979  0.97947141     0.37700
C1211       C  0.75443809  0.09022054  0.01710792     0.36130
C1212       C  0.83004742  0.14084142  0.44259923     0.36130
N1213       N  0.73876707  0.08024807  0.03095385    -0.38690
N1214       N  0.84490200  0.15198940  0.42672851    -0.38690
N1215       N  0.76505201  0.05684415  0.97793118    -0.38140
N1216       N  0.81559257  0.17216246  0.47200394    -0.38140
C1217       C  0.75957481  0.06514000  0.28120042    -0.04810
C1218       C  0.74926498  0.07313666  0.29716683    -0.01920
C1219       C  0.74353724  0.08292825  0.27144735     0.03070
C1220       C  0.74710393  0.08417927  0.22887979    -0.04800
C1221       C  0.75304015  0.07218702  0.21250452    -0.01910
C1222       C  0.75920375  0.06280501  0.23843363     0.03060
C1223       C  0.74667074  0.07327014  0.34087512     0.37710
C1224       C  0.75293780  0.06946026  0.16903913     0.37700
C1225       C  0.76738729  0.05251849  0.22121098     0.36130
C1226       C  0.73401609  0.09188728  0.28877280     0.36130
N1227       N  0.77392234  0.04420449  0.20798632    -0.38690
N1228       N  0.72601517  0.09869334  0.30245038    -0.38690
N1229       N  0.75215752  0.06629077  0.13451453    -0.38140
N1230       N  0.74451382  0.07335348  0.37578189    -0.38140
C1231       C  0.78368684  0.01365047  0.40967958    -0.04810
C1232       C  0.79105763  0.00591776  0.43656709    -0.01920
C1233       C  0.78208559  0.98562360  0.43902853     0.03070
C1234       C  0.76595615  0.97299354  0.41431453    -0.04800
C1235       C  0.75782633  0.98054253  0.38945330    -0.01910
C1236       C  0.76658570  0.00079183  0.38729016     0.03060
C1237       C  0.80859672  0.01875910  0.46001475     0.37710
C1238       C  0.74039326  0.96739209  0.36596635     0.37700
C1239       C  0.75781877  0.00831451  0.36234789     0.36130
C1240       C  0.79016296  0.97780807  0.46521536     0.36130
N1241       N  0.75080603  0.01430344  0.34250533    -0.38690
N1242       N  0.79656686  0.97154175  0.48608782    -0.38690
N1243       N  0.72650198  0.95687616  0.34728492    -0.38140
N1244       N  0.82256962  0.02894236  0.47876395    -0.38140
C1245       C  0.74905558  0.86137657  0.08044149    -0.04810
C1246       C  0.74685216  0.87567377  0.09984609    -0.01920
C1247       C  0.74575412  0.88934551  0.07677514     0.03070
C1248       C  0.74974610  0.89113021  0.03472505    -0.04800
C1249       C  0.75711316  0.88067977  0.01748838    -0.01910
C1250       C  0.75573217  0.86508488  0.03914638     0.03060
C1251       C  0.74647187  0.87714556  0.14361539     0.37710
C1252       C  0.76637595  0.88650496  0.47806256     0.37700
C1253       C  0.76145158  0.85327696  0.01891597     0.36130
C1254       C  0.73970060  0.90115242  0.09605611     0.36130
N1255       N  0.76603064  0.84385111  0.00263503    -0.38690
N1256       N  0.73475880  0.91046160  0.11145208    -0.38690
N1257       N  0.77444746  0.89250345  0.44710766    -0.38140
N1258       N  0.74676337  0.87848973  0.17865171    -0.38140
C1259       C  0.76562635  0.84716446  0.26495958    -0.04810
C1260       C  0.77058293  0.86446895  0.24505566    -0.01920
C1261       C  0.77104881  0.87974519  0.26699473     0.03070
C1262       C  0.76693754  0.87779304  0.30932758    -0.04800
C1263       C  0.76761184  0.86287874  0.32961639    -0.01910
C1264       C  0.76766515  0.84815876  0.30719921     0.03060
C1265       C  0.77561219  0.86643685  0.20221648     0.37710
C1266       C  0.76706463  0.86139183  0.37352306     0.37700
C1267       C  0.76656173  0.83211151  0.32775266     0.36130
C1268       C  0.77558855  0.89715495  0.24622970     0.36130
N1269       N  0.76565027  0.81928934  0.34404501    -0.38690
N1270       N  0.77937352  0.91119967  0.22987051    -0.38690
N1271       N  0.76632418  0.85884111  0.40821288    -0.38140
N1272       N  0.78030406  0.86831528  0.16823038    -0.38140
C1273       C  0.77022657  0.74306910  0.13376999    -0.04810
C1274       C  0.78067294  0.76244093  0.11935259    -0.01920
C1275       C  0.77291624  0.77385212  0.12553572     0.03070
C1276       C  0.75474915  0.76598611  0.14632953    -0.04800
C1277       C  0.74402177  0.74645553  0.15961829    -0.01910
C1278       C  0.75174583  0.73501957  0.15335244     0.03060
C1279       C  0.79991541  0.77099398  0.10019142     0.37710
C1280       C  0.72494327  0.73808769  0.17935470     0.37700
C1281       C  0.74063643  0.71490185  0.16681578     0.36130
C1282       C  0.78399572  0.79396318  0.11194350     0.36130
N1283       N  0.73176402  0.69882892  0.17740856    -0.38690
N1284       N  0.79283858  0.81002151  0.10124209    -0.38690
N1285       N  0.70970244  0.73141499  0.19500449    -0.38140
N1286       N  0.81528817  0.77782442  0.08505483    -0.38140
C1287       C  0.83649897  0.67788927  0.10402308    -0.04810
C1288       C  0.81969963  0.66086866  0.12103244    -0.01920
C1289       C  0.81822766  0.64332922  0.11783518     0.03070
C1290       C  0.83081380  0.64226248  0.09062446    -0.04800
C1291       C  0.84438815  0.65843638  0.06628135    -0.01910
C1292       C  0.84908268  0.67664015  0.07738836     0.03060
C1293       C  0.80208281  0.65953161  0.13387801     0.37710
C1294       C  0.85160801  0.65674254  0.02728752     0.37700
C1295       C  0.86579940  0.69423151  0.05936403     0.36130
C1296       C  0.80251274  0.62591824  0.13858381     0.36130
N1297       N  0.87862921  0.70909894  0.04711633    -0.38690
N1298       N  0.78991493  0.61214192  0.15509429    -0.38690
N1299       N  0.85751047  0.65703414  0.99493362    -0.38140
N1300       N  0.78637800  0.65529155  0.14218454    -0.38140
C1301       C  0.75441215  0.66079911  0.51889117    -0.04810
C1302       C  0.74488137  0.64038960  0.02547416    -0.01920
C1303       C  0.74150959  0.62745500  0.49260245     0.03070
C1304       C  0.74638986  0.63444741  0.45219129    -0.04800
C1305       C  0.75133316  0.65374430  0.44535654    -0.01910
C1306       C  0.75586372  0.66693014  0.47832722     0.03060
C1307       C  0.74084635  0.63317932  0.06694766     0.37710
C1308       C  0.75330602  0.66058702  0.40395926     0.37700
C1309       C  0.76428863  0.68734680  0.47023395     0.36130
C1310       C  0.73494122  0.60752380  0.00101897     0.36130
N1311       N  0.77110868  0.70367291  0.46379588    -0.38690
N1312       N  0.72972737  0.59160717  0.00778768    -0.38690
N1313       N  0.75489040  0.66606295  0.37094606    -0.38140
N1314       N  0.73770653  0.62749467  0.10008925    -0.38140
C1315       C  0.77642267  0.63426705  0.23875075    -0.04810
C1316       C  0.79706406  0.64849420  0.23513269    -0.01920
C1317       C  0.80474510  0.66856428  0.23047719     0.03070
C1318       C  0.79226019  0.67507703  0.22262879    -0.04800
C1319       C  0.77162701  0.66080174  0.22349154    -0.01910
C1320       C  0.76383299  0.64069980  0.23146593     0.03060
C1321       C  0.81090609  0.64272227  0.23342305     0.37710
C1322       C  0.75829884  0.66647442  0.21385982     0.37700
C1323       C  0.74287348  0.62645797  0.22841821     0.36130
C1324       C  0.82591320  0.68247817  0.23350983     0.36130
N1325       N  0.72618625  0.61504671  0.22474014    -0.38690
N1326       N  0.84276076  0.69347680  0.23587955    -0.38690
N1327       N  0.74761553  0.67095341  0.20607847    -0.38140
N1328       N  0.82215124  0.63841417  0.23127774    -0.38140
C1329       C  0.26396093  0.02865144  0.16584552    -0.04810
C1330       C  0.25665262  0.02047556  0.20512045    -0.01920
C1331       C  0.24627407  0.00011882  0.21124740     0.03070
C1332       C  0.24383366  0.98775671  0.17843778    -0.04800
C1333       C  0.25503598  0.99664801  0.14195926    -0.01910
C1334       C  0.26447812  0.01686853  0.13528415     0.03060
C1335       C  0.25914940  0.03305308  0.23907972     0.37710
C1336       C  0.25695189  0.98514253  0.11078506     0.37700
C1337       C  0.27354140  0.02505436  0.09597665     0.36130
C1338       C  0.23761466  0.99211917  0.25093804     0.36130
N1339       N  0.28066682  0.03100600  0.06423692    -0.38690
N1340       N  0.23082658  0.98584061  0.28275764    -0.38690
N1341       N  0.25854021  0.97605681  0.08585599    -0.38140
N1342       N  0.26124764  0.04311126  0.26614524    -0.38140
C1343       C  0.31740921  0.07294921  0.51204305    -0.04810
C1344       C  0.33694931  0.07905001  0.02139478    -0.01920
C1345       C  0.35074170  0.08249558  0.48982683     0.03070
C1346       C  0.34575991  0.08137841  0.44861883    -0.04800
C1347       C  0.32537006  0.07111686  0.44009723    -0.01910
C1348       C  0.31126919  0.06691830  0.47160565     0.03060
C1349       C  0.34326984  0.08322497  0.06327389     0.37710
C1350       C  0.31938263  0.06740631  0.39799553     0.37700
C1351       C  0.29080448  0.05801255  0.46185944     0.36130
C1352       C  0.37076226  0.08922228  0.49925545     0.36130
N1353       N  0.27436606  0.05063748  0.45439746    -0.38690
N1354       N  0.38672253  0.09423034  0.00633548    -0.38690
N1355       N  0.31461845  0.06447438  0.36434183    -0.38140
N1356       N  0.34832889  0.08661845  0.09671700    -0.38140
C1357       C  0.31518147  0.10778567  0.21768898    -0.04810
C1358       C  0.32293506  0.09636039  0.22413190    -0.01920
C1359       C  0.34223400  0.10488815  0.23942994     0.03070
C1360       C  0.35467615  0.12524023  0.24672344    -0.04800
C1361       C  0.34721499  0.13678754  0.23825948    -0.01910
C1362       C  0.32756105  0.12804967  0.22578426     0.03060
C1363       C  0.31168462  0.07590171  0.21354517     0.37710
C1364       C  0.35992782  0.15790871  0.24032736     0.37700
C1365       C  0.31962862  0.13986720  0.22251095     0.36130
C1366       C  0.34910065  0.09244465  0.24781951     0.36130
N1367       N  0.31193132  0.14802720  0.21981528    -0.38690
N1368       N  0.35451816  0.08246013  0.25439274    -0.38690
N1369       N  0.37009975  0.17474624  0.24156842    -0.38140
N1370       N  0.30353225  0.05956227  0.20528583    -0.38140
C1371       C  0.30641090  0.16116689  0.08076473    -0.04810
C1372       C  0.31268879  0.17199291  0.11652728    -0.01920
C1373       C  0.33176661  0.17888735  0.12902235     0.03070
C1374       C  0.34504932  0.17879947  0.10022916    -0.04800
C1375       C  0.33909627  0.17453955  0.05847397    -0.01910
C1376       C  0.31996906  0.16911443  0.04887041     0.03060
C1377       C  0.29875715  0.17254994  0.14285457     0.37710
C1378       C  0.35030708  0.17180233  0.02776763     0.37700
C1379       C  0.31209400  0.16351089  0.00853792     0.36130
C1380       C  0.33637774  0.18414470  0.17127970     0.36130
N1381       N  0.30422397  0.15770918  0.97785528    -0.38690
N1382       N  0.33989612  0.18837911  0.20517204    -0.38690
N1383       N  0.35893308  0.16886715  0.00383372    -0.38140
N1384       N  0.28815483  0.17374455  0.16436918    -0.38140
C1385       C  0.12801171  0.86372295  0.33463210    -0.04810
C1386       C  0.12707405  0.86387755  0.29163637    -0.01920
C1387       C  0.14326260  0.87883577  0.26822540     0.03070
C1388       C  0.16084222  0.89394383  0.28688728    -0.04800
C1389       C  0.16012389  0.89575132  0.32957811    -0.01910
C1390       C  0.14381341  0.88098867  0.35322534     0.03060
C1391       C  0.11017007  0.84792167  0.27071449     0.37710
C1392       C  0.17694935  0.91216318  0.34945868     0.37700
C1393       C  0.14365281  0.88347491  0.39692864     0.36130
C1394       C  0.14142110  0.87840091  0.22457572     0.36130
N1395       N  0.14349803  0.88555223  0.43179990    -0.38690
N1396       N  0.13812793  0.87721601  0.19024607    -0.38690
N1397       N  0.19040217  0.92536244  0.36513418    -0.38140
N1398       N  0.09685111  0.83514028  0.25380648    -0.38140
C1399       C  0.12569554  0.83927956  0.03416367    -0.04810
C1400       C  0.12450313  0.85581459  0.03532421    -0.01920
C1401       C  0.13842492  0.87302457  0.05817368     0.03070
C1402       C  0.15460020  0.87453231  0.07767339    -0.04800
C1403       C  0.15622088  0.85843921  0.07388092    -0.01910
C1404       C  0.14126493  0.84072068  0.05614312     0.03060
C1405       C  0.10938478  0.85538635  0.51241082     0.37710
C1406       C  0.17445147  0.86055931  0.08381712     0.37700
C1407       C  0.14238727  0.82384026  0.05990881     0.36130
C1408       C  0.13635255  0.88927938  0.06083901     0.36130
N1409       N  0.14324565  0.81036725  0.06205182    -0.38690
N1410       N  0.13471585  0.90230614  0.06290749    -0.38690
N1411       N  0.18895275  0.86166816  0.08916846    -0.38140
N1412       N  0.09727813  0.85501940  0.49401255    -0.38140
C1413       C  0.84043566  0.72985722  0.01091292    -0.04810
C1414       C  0.85727095  0.74831586  0.02271838    -0.01920
C1415       C  0.87656036  0.75488032  0.00711991     0.03070
C1416       C  0.87966029  0.74221463  0.48394312    -0.04800
C1417       C  0.86303358  0.72326155  0.47628158    -0.01910
C1418       C  0.84387842  0.71840136  0.48398543     0.03060
C1419       C  0.85492737  0.76075828  0.05008434     0.37710
C1420       C  0.86523893  0.70764273  0.46419250     0.37700
C1421       C  0.82786308  0.70128289  0.46346693     0.36130
C1422       C  0.89318987  0.77444517  0.01533634     0.36130
N1423       N  0.81525966  0.68768566  0.44687505    -0.38690
N1424       N  0.90653107  0.79007656  0.02193062    -0.38690
N1425       N  0.86589866  0.69430100  0.45652077    -0.38140
N1426       N  0.85322074  0.77082044  0.07200028    -0.38140
C1427       C  0.86914439  0.75076378  0.21764786    -0.04810
C1428       C  0.87185564  0.75357042  0.26011865    -0.01920
C1429       C  0.88871424  0.75585358  0.27817509     0.03070
C1430       C  0.90177957  0.75307213  0.25490227    -0.04800
C1431       C  0.90051789  0.75279863  0.21239171    -0.01910
C1432       C  0.88530807  0.75315384  0.19383233     0.03060
C1433       C  0.85747907  0.75412958  0.28537792     0.37710
C1434       C  0.91487524  0.75194277  0.18746999     0.37700
C1435       C  0.88664814  0.75582175  0.14994231     0.36130
C1436       C  0.89269012  0.76140098  0.32045996     0.36130
N1437       N  0.88787634  0.75791659  0.11499162    -0.38690
N1438       N  0.89596825  0.76669933  0.35382656    -0.38690
N1439       N  0.92619599  0.75123294  0.16723201    -0.38140
N1440       N  0.84606086  0.75466036  0.30567320    -0.38140
C1441       C  0.98555716  0.75905912  0.40168388    -0.04810
C1442       C  0.00095403  0.77443145  0.37866542    -0.01920
C1443       C  0.02049644  0.78328235  0.39067777     0.03070
C1444       C  0.02501734  0.77591864  0.42428666    -0.04800
C1445       C  0.00965374  0.76009067  0.44666055    -0.01910
C1446       C  0.98989485  0.75194376  0.43591978     0.03060
C1447       C  0.99655570  0.78157785  0.34312039     0.37710
C1448       C  0.01415464  0.75190696  0.47996410     0.37700
C1449       C  0.97416844  0.73653669  0.46068558     0.36130
C1450       C  0.03597862  0.80033824  0.36865501     0.36130
N1451       N  0.96202361  0.72428485  0.48125340    -0.38690
N1452       N  0.04822326  0.81393259  0.35104397    -0.38690
N1453       N  0.01775658  0.74535491  0.50647972    -0.38140
N1454       N  0.99299295  0.78717096  0.31476043    -0.38140
C1455       C  0.91554800  0.70306448  0.46807537    -0.04810
C1456       C  0.91010856  0.69932262  0.50907639    -0.01920
C1457       C  0.90067452  0.68015649  0.02426765     0.03070
C1458       C  0.89865422  0.66492450  0.49911103    -0.04800
C1459       C  0.90882196  0.67039526  0.46097217    -0.01910
C1460       C  0.91746880  0.68955782  0.44596443     0.03060
C1461       C  0.91635318  0.71572281  0.03615429     0.37710
C1462       C  0.91013100  0.65633295  0.43686329     0.37700
C1463       C  0.93091607  0.69657890  0.41148793     0.36130
C1464       C  0.89336551  0.67702672  0.06562677     0.36130
N1465       N  0.94259044  0.70304617  0.38550206    -0.38690
N1466       N  0.88787232  0.67621537  0.09873006    -0.38690
N1467       N  0.91105281  0.64493959  0.41797272    -0.38140
N1468       N  0.92176756  0.72890698  0.05770445    -0.38140
C1469       C  0.93588166  0.70073231  0.25414118    -0.04810
C1470       C  0.92896276  0.68111191  0.26499691    -0.01920
C1471       C  0.92089295  0.66576886  0.23567202     0.03070
C1472       C  0.91946957  0.66943247  0.19476931    -0.04800
C1473       C  0.92990991  0.68930999  0.18263368    -0.01910
C1474       C  0.93809749  0.70477124  0.21197707     0.03060
C1475       C  0.92767355  0.67567706  0.30708929     0.37710
C1476       C  0.93209915  0.69385838  0.13970274     0.37700
C1477       C  0.94749534  0.72475889  0.19895894     0.36130
C1478       C  0.91241225  0.64579393  0.24822548     0.36130
N1479       N  0.95528211  0.74079930  0.18867544    -0.38690
N1480       N  0.90578673  0.62988065  0.25815599    -0.38690
N1481       N  0.93442587  0.69774349  0.10544889    -0.38140
N1482       N  0.92588034  0.66958415  0.33951414    -0.38140
C1483       C  0.85531837  0.68946038  0.34291161    -0.04810
C1484       C  0.86050164  0.67575156  0.34121586    -0.01920
C1485       C  0.84656068  0.65682979  0.33016486     0.03070
C1486       C  0.82713080  0.65117853  0.32941637    -0.04800
C1487       C  0.82169198  0.66468275  0.33117282    -0.01910
C1488       C  0.83624250  0.68426794  0.33615646     0.03060
C1489       C  0.87879459  0.67961836  0.35626103     0.37710
C1490       C  0.80149724  0.65892233  0.32875586     0.37700
C1491       C  0.83147831  0.69880462  0.33732133     0.36130
C1492       C  0.85171828  0.64262579  0.32464694     0.36130
N1493       N  0.82763892  0.71032933  0.33832126    -0.38690
N1494       N  0.85576518  0.63133778  0.32018481    -0.38690
N1495       N  0.78595716  0.65591606  0.32631432    -0.38140
N1496       N  0.89220781  0.68028154  0.36892984    -0.38140
C1497       C  0.26241892  0.10196342  0.99912825    -0.04810
C1498       C  0.26301119  0.10281812  0.45656000    -0.01920
C1499       C  0.25887672  0.11517769  0.43723161     0.03070
C1500       C  0.25990816  0.13068605  0.45883958    -0.04800
C1501       C  0.25757805  0.12875923  0.00161609    -0.01910
C1502       C  0.25661126  0.11292380  0.02073544     0.03060
C1503       C  0.26665017  0.09028321  0.43253749     0.37710
C1504       C  0.25629873  0.14279908  0.02565113     0.37700
C1505       C  0.24730270  0.10609690  0.06008666     0.36130
C1506       C  0.24895537  0.10895378  0.39900584     0.36130
N1507       N  0.23844377  0.09899414  0.08979303    -0.38690
N1508       N  0.23940366  0.10279011  0.37040842    -0.38690
N1509       N  0.25561258  0.15441955  0.04417617    -0.38140
N1510       N  0.26963284  0.08046795  0.41280223    -0.38140
C1511       C  0.25231474  0.15385920  0.25288001    -0.04810
C1512       C  0.24869811  0.13775570  0.27547560    -0.01920
C1513       C  0.24856810  0.12219664  0.25586397     0.03070
C1514       C  0.24991153  0.12170553  0.21287578    -0.04800
C1515       C  0.24736471  0.13496661  0.19107452    -0.01910
C1516       C  0.24915859  0.15120204  0.21092542     0.03060
C1517       C  0.24291508  0.13652537  0.31760619     0.37710
C1518       C  0.24182559  0.13179774  0.14892131     0.37700
C1519       C  0.24844572  0.16573915  0.18822098     0.36130
C1520       C  0.24714982  0.10676909  0.27921244     0.36130
N1521       N  0.24792733  0.17736896  0.17013623    -0.38690
N1522       N  0.24603607  0.09376152  0.29509643    -0.38690
N1523       N  0.23657197  0.12998751  0.11582112    -0.38140
N1524       N  0.23694234  0.13538805  0.35037601    -0.38140
C1525       C  0.32150123  0.15919695  0.30882883    -0.04810
C1526       C  0.33930344  0.17781019  0.31085337    -0.01920
C1527       C  0.35524355  0.18023273  0.33138821     0.03070
C1528       C  0.35377549  0.16399857  0.34830736    -0.04800
C1529       C  0.33675641  0.14505981  0.34245489    -0.01910
C1530       C  0.32073079  0.14272620  0.32208708     0.03060
C1531       C  0.34140483  0.19520437  0.29581639     0.37710
C1532       C  0.33464637  0.12789955  0.35918736     0.37700
C1533       C  0.30270257  0.12349758  0.31779629     0.36130
C1534       C  0.37239677  0.19978815  0.33901525     0.36130
N1535       N  0.28848206  0.10810377  0.31437554    -0.38690
N1536       N  0.38561425  0.21546509  0.34565697    -0.38690
N1537       N  0.33131470  0.11330501  0.37160087    -0.38140
N1538       N  0.34581965  0.21039552  0.28498602    -0.38140
C1539       C  0.33063471  0.20730767  0.44932522    -0.04810
C1540       C  0.33837073  0.22382787  0.47562499    -0.01920
C1541       C  0.35664682  0.23162403  0.49519526     0.03070
C1542       C  0.36778648  0.22362396  0.48776964    -0.04800
C1543       C  0.36144215  0.20892271  0.45857866    -0.01910
C1544       C  0.34268881  0.20002621  0.44142770     0.03060
C1545       C  0.32762017  0.23277056  0.48375047     0.37710
C1546       C  0.37464472  0.20317944  0.44609179     0.37700
C1547       C  0.33516881  0.18176668  0.42064558     0.36130
C1548       C  0.36407823  0.24789281  0.02314728     0.36130
N1549       N  0.32846700  0.16638553  0.40710132    -0.38690
N1550       N  0.37023370  0.26099023  0.04523219    -0.38690
N1551       N  0.38573838  0.19925242  0.43676583    -0.38140
N1552       N  0.31914877  0.24001412  0.49043862    -0.38140
C1553       C  0.32731220  0.24508841  0.24670469    -0.04810
C1554       C  0.34690356  0.25652306  0.26080895    -0.01920
C1555       C  0.36299955  0.26106768  0.23449596     0.03070
C1556       C  0.35974329  0.25495449  0.19340053    -0.04800
C1557       C  0.34085634  0.24784115  0.17765816    -0.01910
C1558       C  0.32492741  0.24358596  0.20407408     0.03060
C1559       C  0.35000752  0.26048851  0.30400748     0.37710
C1560       C  0.33705561  0.24225160  0.13518547     0.37700
C1561       C  0.30520005  0.23402261  0.18837518     0.36130
C1562       C  0.38255049  0.27007242  0.25063193     0.36130
N1563       N  0.28942020  0.22631494  0.17596585    -0.38690
N1564       N  0.39821559  0.27735356  0.26339597    -0.38690
N1565       N  0.33367039  0.23749933  0.10147371    -0.38140
N1566       N  0.35245403  0.26360361  0.33854997    -0.38140
C1567       C  0.24089202  0.24948023  0.40871364    -0.04810
C1568       C  0.25758528  0.25671979  0.38249098    -0.01920
C1569       C  0.26564121  0.24564220  0.37446243     0.03070
C1570       C  0.25747708  0.22737063  0.39319986    -0.04800
C1571       C  0.24142525  0.22053254  0.42093642    -0.01910
C1572       C  0.23312804  0.23146751  0.42849036     0.03060
C1573       C  0.26681060  0.27585032  0.36412532     0.37710
C1574       C  0.23285607  0.20176935  0.44053371     0.37700
C1575       C  0.21600213  0.22368225  0.45511052     0.36130
C1576       C  0.28268472  0.25330581  0.34758439     0.36130
N1577       N  0.20232534  0.21746232  0.47633007    -0.38690
N1578       N  0.29628229  0.25941956  0.32616795    -0.38690
N1579       N  0.22602156  0.18679589  0.45613184    -0.38140
N1580       N  0.27416756  0.29110318  0.34950567    -0.38140
C1581       C  0.16783020  0.26946672  0.00917393    -0.04810
C1582       C  0.15364695  0.27321043  0.99646674    -0.01920
C1583       C  0.13619728  0.26680434  0.01943729     0.03070
C1584       C  0.13229373  0.25643637  0.05597073    -0.04800
C1585       C  0.14501173  0.25034389  0.06571397    -0.01910
C1586       C  0.16270340  0.25702600  0.04293608     0.03060
C1587       C  0.15616975  0.28323575  0.45901549     0.37710
C1588       C  0.14000821  0.23710792  0.09936078     0.37700
C1589       C  0.17619628  0.25207324  0.05601740     0.36130
C1590       C  0.12274814  0.27182271  0.00596844     0.36130
N1591       N  0.18698151  0.24813154  0.06648222    -0.38690
N1592       N  0.11210930  0.27584672  0.99490068    -0.38690
N1593       N  0.13615357  0.22636652  0.12580923    -0.38140
N1594       N  0.15601854  0.29035183  0.42911206    -0.38140
C1595       C  0.11602446  0.25334418  0.29209607    -0.04810
C1596       C  0.12897538  0.25043774  0.26905559    -0.01920
C1597       C  0.14610459  0.25319847  0.28685077     0.03070
C1598       C  0.14957248  0.25743600  0.32895668    -0.04800
C1599       C  0.13346275  0.25432687  0.35293156    -0.01910
C1600       C  0.11768455  0.25394750  0.33480173     0.03060
C1601       C  0.12447924  0.24440860  0.22717778     0.37710
C1602       C  0.13156499  0.24838072  0.39488341     0.37700
C1603       C  0.10321735  0.25432908  0.36011928     0.36130
C1604       C  0.15963482  0.25115054  0.26191825     0.36130
N1605       N  0.09168438  0.25460100  0.38053449    -0.38690
N1606       N  0.17024690  0.24924642  0.24185585    -0.38690
N1607       N  0.12931922  0.24249396  0.42769696    -0.38140
N1608       N  0.12044264  0.23874618  0.19419060    -0.38140
C1609       C  0.93571787  0.23696068  0.01092911    -0.04810
C1610       C  0.93330794  0.25256384  0.51728602    -0.01920
C1611       C  0.92597040  0.25878153  0.48562998     0.03070
C1612       C  0.91789662  0.24728086  0.44984808    -0.04800
C1613       C  0.92075100  0.23159948  0.44518817    -0.01910
C1614       C  0.93328204  0.23009299  0.97103237     0.03060
C1615       C  0.93933126  0.26266931  0.55582612     0.37710
C1616       C  0.90825386  0.21434454  0.42029600     0.37700
C1617       C  0.93977054  0.21759772  0.95949581     0.36130
C1618       C  0.92602469  0.27619942  0.49084334     0.36130
N1619       N  0.94495640  0.20780721  0.94867445    -0.38690
N1620       N  0.92651812  0.29040370  0.49480792    -0.38690
N1621       N  0.89780766  0.20013848  0.40238170    -0.38140
N1622       N  0.94459321  0.27091194  0.58650029    -0.38140
C1623       C  0.87512350  0.22139875  0.24238180    -0.04810
C1624       C  0.86248226  0.20094544  0.23459891    -0.01920
C1625       C  0.87008412  0.19017685  0.21938917     0.03070
C1626       C  0.89029278  0.19961771  0.20930542    -0.04800
C1627       C  0.90251509  0.22020212  0.21313951    -0.01910
C1628       C  0.89512653  0.23088041  0.22994767     0.03060
C1629       C  0.84145386  0.19057110  0.24233666     0.37710
C1630       C  0.92284812  0.23070319  0.19893287     0.37700
C1631       C  0.90863931  0.25165709  0.23532665     0.36130
C1632       C  0.85709870  0.16911705  0.21619587     0.36130
N1633       N  0.91984055  0.26823248  0.23918934    -0.38690
N1634       N  0.84677616  0.15231442  0.21401971    -0.38690
N1635       N  0.93903331  0.23912537  0.18751104    -0.38140
N1636       N  0.82467950  0.18210454  0.24856307    -0.38140
C1637       C  0.85162785  0.13902723  0.04905995    -0.04810
C1638       C  0.83449953  0.12315351  0.06597752    -0.01920
C1639       C  0.82093584  0.12640863  0.08350475     0.03070
C1640       C  0.82611400  0.14578783  0.08728172    -0.04800
C1641       C  0.83987834  0.15964120  0.05900389    -0.01910
C1642       C  0.85122140  0.15489955  0.03591462     0.03060
C1643       C  0.83180820  0.10435087  0.06852535     0.37710
C1644       C  0.84357764  0.17877656  0.05513246     0.37700
C1645       C  0.86570069  0.16846872  0.00648344     0.36130
C1646       C  0.80126566  0.11002152  0.09222702     0.36130
N1647       N  0.87731042  0.17921743  0.98292517    -0.38690
N1648       N  0.78540871  0.09649426  0.09615455    -0.38690
N1649       N  0.84731701  0.19433972  0.05071721    -0.38140
N1650       N  0.82915550  0.08909134  0.07077135    -0.38140
C1651       C  0.91808985  0.15392371  0.01024953    -0.04810
C1652       C  0.90490896  0.13583296  0.02973623    -0.01920
C1653       C  0.88834566  0.12031709  0.00844809     0.03070
C1654       C  0.88435340  0.12314579  0.46818812    -0.04800
C1655       C  0.89992149  0.14009776  0.44740839    -0.01910
C1656       C  0.91732840  0.15397725  0.96780712     0.03060
C1657       C  0.90838034  0.13331058  0.07141653     0.37710
C1658       C  0.89821695  0.14457652  0.40588386     0.37700
C1659       C  0.93517888  0.16736317  0.44517205     0.36130
C1660       C  0.87590607  0.10139336  0.02734600     0.36130
N1661       N  0.94962069  0.17730151  0.42676166    -0.38690
N1662       N  0.86603479  0.08599648  0.04142079    -0.38690
N1663       N  0.89691824  0.14864509  0.37311299    -0.38140
N1664       N  0.91142038  0.13108132  0.10441104    -0.38140
C1665       C  0.84859507  0.08789454  0.26145264    -0.04810
C1666       C  0.84868286  0.08865893  0.21889180    -0.01920
C1667       C  0.86470375  0.10449482  0.19788942     0.03070
C1668       C  0.88024928  0.12077553  0.21959488    -0.04800
C1669       C  0.88198622  0.11778916  0.26122833    -0.01910
C1670       C  0.86645517  0.10089144  0.28154900     0.03060
C1671       C  0.83162672  0.07354254  0.19692071     0.37710
C1672       C  0.89986757  0.13146772  0.28267887     0.37700
C1673       C  0.86929200  0.09626380  0.32192915     0.36130
C1674       C  0.86486915  0.10359453  0.15396431     0.36130
N1675       N  0.87240181  0.09231602  0.35318060    -0.38690
N1676       N  0.86512742  0.10286818  0.11887040    -0.38690
N1677       N  0.91433275  0.14230349  0.29940950    -0.38140
N1678       N  0.81807117  0.06153167  0.17925322    -0.38140
C1679       C  0.98681382  0.21850465  0.16213050    -0.04810
C1680       C  0.99820848  0.23483440  0.18790664    -0.01920
C1681       C  0.01825927  0.24219710  0.19496881     0.03070
C1682       C  0.02698377  0.23306709  0.17695544    -0.04800
C1683       C  0.01514881  0.21597952  0.15346231    -0.01910
C1684       C  0.99534934  0.20890989  0.14572440     0.03060
C1685       C  0.98961271  0.24465595  0.20566859     0.37710
C1686       C  0.02343751  0.20561609  0.13688314     0.37700
C1687       C  0.98363439  0.19143582  0.12127154     0.36130
C1688       C  0.03014695  0.25978210  0.21888383     0.36130
N1689       N  0.97428697  0.17752850  0.10174824    -0.38690
N1690       N  0.03961263  0.27382962  0.23794699    -0.38690
N1691       N  0.03006243  0.19738336  0.12364852    -0.38140
N1692       N  0.98281685  0.25254613  0.21992685    -0.38140
C1693       C  0.49235587  0.49461947  0.26895467    -0.04810
C1694       C  0.49367315  0.48024399  0.28824161    -0.01920
C1695       C  0.50022213  0.47030633  0.26607009     0.03070
C1696       C  0.51277237  0.47995393  0.23252046    -0.04800
C1697       C  0.51034329  0.49298142  0.21033454    -0.01910
C1698       C  0.49982067  0.50012884  0.22828475     0.03060
C1699       C  0.49410619  0.47975744  0.33201634     0.37710
C1700       C  0.52184546  0.50232954  0.17361738     0.37700
C1701       C  0.49959628  0.51528720  0.20679886     0.36130
C1702       C  0.49912104  0.45374916  0.28394034     0.36130
N1703       N  0.49954164  0.52730357  0.18923988    -0.38690
N1704       N  0.49810821  0.44053488  0.29848568    -0.38690
N1705       N  0.53139156  0.51093916  0.14551120    -0.38140
N1706       N  0.49595822  0.48059969  0.36682868    -0.38140
C1707       C  0.41925032  0.41216706  0.35705360    -0.04810
C1708       C  0.42707429  0.40098043  0.34648454    -0.01920
C1709       C  0.43191780  0.39232663  0.37703708     0.03070
C1710       C  0.43004609  0.39554333  0.41854473    -0.04800
C1711       C  0.41809384  0.40261076  0.42833728    -0.01910
C1712       C  0.41275140  0.41089699  0.39780219     0.03060
C1713       C  0.43144928  0.39928707  0.30440413     0.37710
C1714       C  0.41396834  0.40407000  0.47080927     0.37700
C1715       C  0.40240477  0.41994663  0.40899571     0.36130
C1716       C  0.44146997  0.38244729  0.36609914     0.36130
N1717       N  0.39401618  0.42708020  0.41771915    -0.38690
N1718       N  0.44898849  0.37443634  0.35749957    -0.38690
N1719       N  0.41072211  0.40528027  0.50475419    -0.38140
N1720       N  0.43503215  0.39721196  0.27128070    -0.38140
C1721       C  0.47077514  0.44102327  0.12191762    -0.04810
C1722       C  0.46769813  0.45414068  0.10210265    -0.01920
C1723       C  0.46316733  0.46581533  0.12499142     0.03070
C1724       C  0.45644230  0.46080433  0.16535131    -0.04800
C1725       C  0.45498416  0.44441849  0.18236162    -0.01910
C1726       C  0.46416305  0.43607696  0.16280572     0.03060
C1727       C  0.46238962  0.45030473  0.05988672     0.37710
C1728       C  0.44127462  0.43416439  0.21555296     0.37700
C1729       C  0.46591744  0.42192725  0.18429030     0.36130
C1730       C  0.46354242  0.48193733  0.10722956     0.36130
N1731       N  0.46742925  0.41068992  0.20144456    -0.38690
N1732       N  0.46353935  0.49524084  0.09665494    -0.38690
N1733       N  0.42926843  0.42575042  0.24038310    -0.38140
N1734       N  0.45647693  0.44546090  0.02726420    -0.38140
C1735       C  0.32162744  0.41780345  0.21291501    -0.04810
C1736       C  0.33704337  0.43672379  0.20070570    -0.01920
C1737       C  0.35641513  0.44447213  0.21275880     0.03070
C1738       C  0.36093616  0.43306207  0.23545866    -0.04800
C1739       C  0.34580976  0.41362653  0.24528842    -0.01910
C1740       C  0.32611625  0.40602228  0.23416750     0.03060
C1741       C  0.33277374  0.44859107  0.17676410     0.37710
C1742       C  0.35053987  0.40149720  0.26642081     0.37700
C1743       C  0.31048456  0.38627139  0.24499796     0.36130
C1744       C  0.37165805  0.46463529  0.20304186     0.36130
N1745       N  0.29805976  0.37040003  0.25321563    -0.38690
N1746       N  0.38376429  0.48070804  0.19547292    -0.38690
N1747       N  0.35435968  0.39182580  0.28326358    -0.38140
N1748       N  0.32933760  0.45802201  0.15777283    -0.38140
C1749       C  0.16598454  0.31932502  0.18588005    -0.04810
C1750       C  0.17027347  0.33129110  0.22021313    -0.01920
C1751       C  0.17557727  0.35036426  0.21503898     0.03070
C1752       C  0.18238190  0.35889962  0.17626136    -0.04800
C1753       C  0.17563417  0.34690739  0.14176244    -0.01910
C1754       C  0.16918337  0.32739166  0.14605892     0.03060
C1755       C  0.17196158  0.32462981  0.25945270     0.37710
C1756       C  0.17787226  0.35535272  0.10187022     0.37700
C1757       C  0.16775448  0.31648666  0.10975599     0.36130
C1758       C  0.17738755  0.36212056  0.24996951     0.36130
N1759       N  0.16678003  0.30759851  0.08131240    -0.38690
N1760       N  0.17870902  0.37140627  0.27792359    -0.38690
N1761       N  0.17968232  0.36223901  0.07025893    -0.38140
N1762       N  0.17339609  0.31802218  0.28888722    -0.38140
C1763       C  0.27050339  0.35917322  0.08713405    -0.04810
C1764       C  0.27353000  0.36138512  0.04466395    -0.01920
C1765       C  0.26789698  0.34496715  0.01939085     0.03070
C1766       C  0.25983351  0.32617300  0.03640071    -0.04800
C1767       C  0.26055964  0.32503037  0.07914305    -0.01910
C1768       C  0.26582456  0.34134687  0.10428950     0.03060
C1769       C  0.28062870  0.38016861  0.02676135     0.37710
C1770       C  0.25358564  0.30633202  0.09743098     0.37700
C1771       C  0.26438822  0.33921569  0.14821747     0.36130
C1772       C  0.26791226  0.34710736  0.97581929     0.36130
N1773       N  0.26318414  0.33752839  0.18326757    -0.38690
N1774       N  0.26785857  0.34959993  0.44120752    -0.38690
N1775       N  0.24797707  0.29137243  0.11193150    -0.38140
N1776       N  0.28658521  0.39526745  0.01260153    -0.38140
C1777       C  0.24604589  0.36015964  0.27871568    -0.04810
C1778       C  0.23016952  0.34300577  0.26003062    -0.01920
C1779       C  0.22367814  0.32432181  0.27475953     0.03070
C1780       C  0.23364658  0.32213419  0.30618780    -0.04800
C1781       C  0.25123904  0.33875441  0.32026264    -0.01910
C1782       C  0.25703381  0.35771048  0.30809892     0.03060
C1783       C  0.22054943  0.34392792  0.22458722     0.37710
C1784       C  0.26336024  0.33607688  0.34708792     0.37700
C1785       C  0.27374452  0.37447745  0.32749499     0.36130
C1786       C  0.20619140  0.30722094  0.25817148     0.36130
N1787       N  0.28709532  0.38781934  0.34310488    -0.38690
N1788       N  0.19222326  0.29387624  0.24427482    -0.38690
N1789       N  0.27315659  0.33358991  0.36737360    -0.38140
N1790       N  0.21273264  0.34359101  0.19538310    -0.38140
C1791       C  0.27259404  0.91093330  0.34094441    -0.04810
C1792       C  0.27208431  0.91293126  0.29837283    -0.01920
C1793       C  0.26231517  0.92108428  0.28150353     0.03070
C1794       C  0.25191348  0.92671931  0.30621959    -0.04800
C1795       C  0.25368322  0.92612118  0.34898275    -0.01910
C1796       C  0.26448500  0.91897537  0.36609043     0.03060
C1797       C  0.28079969  0.90555073  0.27147533     0.37710
C1798       C  0.24371942  0.93221646  0.37553214     0.37700
C1799       C  0.26655315  0.91920410  0.40975755     0.36130
C1800       C  0.26158586  0.92202344  0.23806791     0.36130
N1801       N  0.26854298  0.91973744  0.44461994    -0.38690
N1802       N  0.26111605  0.92269600  0.20317627    -0.38690
N1803       N  0.23572298  0.93707344  0.39668494    -0.38140
N1804       N  0.28767238  0.89962674  0.24991775    -0.38140
C1805       C  0.23128540  0.90613144  0.08231150    -0.04810
C1806       C  0.22341038  0.89714590  0.04483142    -0.01920
C1807       C  0.23128311  0.88802185  0.02318761     0.03070
C1808       C  0.24568389  0.88584288  0.04097320    -0.04800
C1809       C  0.25544784  0.89762619  0.07560816    -0.01910
C1810       C  0.24919354  0.90905976  0.09352979     0.03060
C1811       C  0.20833713  0.89886485  0.02711341     0.37710
C1812       C  0.27177836  0.89819605  0.09338309     0.37700
C1813       C  0.26304778  0.92672113  0.11513583     0.36130
C1814       C  0.22702863  0.88442021  0.98051653     0.36130
N1815       N  0.27460076  0.94160198  0.12957953    -0.38690
N1816       N  0.22420712  0.88365942  0.44605577    -0.38690
N1817       N  0.28468184  0.89860510  0.10830476    -0.38140
N1818       N  0.19657151  0.90061698  0.01299712    -0.38140
C1819       C  0.18637109  0.82979152  0.42029735    -0.04810
C1820       C  0.18015365  0.84139413  0.40609651    -0.01920
C1821       C  0.16900793  0.83492849  0.37121761     0.03070
C1822       C  0.15481908  0.81484179  0.37315454    -0.04800
C1823       C  0.16217299  0.80321621  0.37805277    -0.01910
C1824       C  0.17762562  0.81042661  0.40554072     0.03060
C1825       C  0.18185704  0.85684467  0.43098131     0.37710
C1826       C  0.15008413  0.78262355  0.36890159     0.37700
C1827       C  0.18415252  0.79823273  0.41858407     0.36130
C1828       C  0.16598737  0.84815225  0.34994192     0.36130
N1829       N  0.18917931  0.78840421  0.42929069    -0.38690
N1830       N  0.16488521  0.85992337  0.33422094    -0.38690
N1831       N  0.14053473  0.76598627  0.36322194    -0.38140
N1832       N  0.18205574  0.86835578  0.95126284    -0.38140
C1833       C  0.37357858  0.91970759  0.47044439    -0.04810
C1834       C  0.36480528  0.91277207  0.43204216    -0.01920
C1835       C  0.34430240  0.90285485  0.42820422     0.03070
C1836       C  0.33242978  0.90030097  0.46283435    -0.04800
C1837       C  0.34194014  0.91102521  0.49871924    -0.01910
C1838       C  0.36239172  0.92016993  0.00304090     0.03060
C1839       C  0.37665618  0.91462862  0.39665048     0.37710
C1840       C  0.33084624  0.91243767  0.03208160     0.37700
C1841       C  0.37160777  0.92874300  0.04160572     0.36130
C1842       C  0.33575012  0.89460279  0.38882962     0.36130
N1843       N  0.37878876  0.93554232  0.07254546    -0.38690
N1844       N  0.32907822  0.88812490  0.35732279    -0.38690
N1845       N  0.32220057  0.91390727  0.05852549    -0.38140
N1846       N  0.38551281  0.91583271  0.36760501    -0.38140
C1847       C  0.43078460  0.98170045  0.09672108    -0.04810
C1848       C  0.44038625  0.00165857  0.08461594    -0.01920
C1849       C  0.44068028  0.01562418  0.11074995     0.03070
C1850       C  0.43443486  0.01093351  0.15151950    -0.04800
C1851       C  0.42182331  0.99085762  0.16108230    -0.01910
C1852       C  0.42001504  0.97627116  0.13403126     0.03060
C1853       C  0.45223942  0.00875858  0.04762115     0.37710
C1854       C  0.41228685  0.98551510  0.20076278     0.37700
C1855       C  0.40879581  0.95609973  0.14673831     0.36130
C1856       C  0.45091002  0.03587958  0.09852105     0.36130
N1857       N  0.39975646  0.93996829  0.15695290    -0.38690
N1858       N  0.45899552  0.05204289  0.08893798    -0.38690
N1859       N  0.40448557  0.98123665  0.23232900    -0.38140
N1860       N  0.46246056  0.01482964  0.01919362    -0.38140
C1861       C  0.43911392  0.96307748  0.39213271    -0.04810
C1862       C  0.43983536  0.97828147  0.41456752    -0.01920
C1863       C  0.44797909  0.99694061  0.39706850     0.03070
C1864       C  0.45462082  0.00059392  0.35612045    -0.04800
C1865       C  0.45174482  0.98482153  0.33234651    -0.01910
C1866       C  0.44356321  0.96615453  0.35002007     0.03060
C1867       C  0.43098427  0.97483853  0.45469532     0.37710
C1868       C  0.45672662  0.98745810  0.28926703     0.37700
C1869       C  0.43771059  0.94979379  0.32356701     0.36130
C1870       C  0.45026625  0.01270554  0.42197546     0.36130
N1871       N  0.43240768  0.93730790  0.30027635    -0.38690
N1872       N  0.45216179  0.02539108  0.44148285    -0.38690
N1873       N  0.46048077  0.98895996  0.25479642    -0.38140
N1874       N  0.42380542  0.97327231  0.48635160    -0.38140
C1875       C  0.51953471  0.01632156  0.03505093    -0.04810
C1876       C  0.52299155  0.00318710  0.05344130    -0.01920
C1877       C  0.51564764  0.98510958  0.03580308     0.03070
C1878       C  0.50413872  0.97970979  0.00082994    -0.04800
C1879       C  0.50114318  0.99303007  0.98171601    -0.01910
C1880       C  0.50762690  0.01077731  0.00059856     0.03060
C1881       C  0.53513419  0.00839891  0.08897652     0.37710
C1882       C  0.49132058  0.98854767  0.94301058     0.37700
C1883       C  0.50368564  0.02425027  0.98272753     0.36130
C1884       C  0.51916847  0.97161447  0.55495112     0.36130
N1885       N  0.50059436  0.03505140  0.96873697    -0.38690
N1886       N  0.52280562  0.96148345  0.57018826    -0.38690
N1887       N  0.48385796  0.98519568  0.91173907    -0.38140
N1888       N  0.54456176  0.01187329  0.11749933    -0.38140
C1889       C  0.70020113  0.89548778  0.31037911    -0.04810
C1890       C  0.69871811  0.89629754  0.26794806    -0.01920
C1891       C  0.68025941  0.88973015  0.25039354     0.03070
C1892       C  0.66317757  0.88235952  0.27528131    -0.04800
C1893       C  0.66568090  0.88515758  0.31761707    -0.01910
C1894       C  0.68437441  0.89275477  0.33468201     0.03060
C1895       C  0.71656933  0.90592206  0.24326482     0.37710
C1896       C  0.64906632  0.88074456  0.34324877     0.37700
C1897       C  0.68837199  0.90166478  0.37435633     0.36130
C1898       C  0.67950286  0.89303045  0.20771465     0.36130
N1899       N  0.69171063  0.90995994  0.40485843    -0.38690
N1900       N  0.67965923  0.89686730  0.17396064    -0.38690
N1901       N  0.63549263  0.87721132  0.36262108    -0.38140
N1902       N  0.73096834  0.91401644  0.22397423    -0.38140
C1903       C  0.65406502  0.90244889  0.06750596    -0.04810
C1904       C  0.67441174  0.91668785  0.07325170    -0.01920
C1905       C  0.68891549  0.91832215  0.04544064     0.03070
C1906       C  0.68313282  0.90614065  0.01069914    -0.04800
C1907       C  0.66274496  0.89498433  0.00123173    -0.01910
C1908       C  0.64854929  0.89412538  0.02840490     0.03060
C1909       C  0.68034081  0.92767386  0.11088769     0.37710
C1910       C  0.65593941  0.88260203  0.96557825     0.37700
C1911       C  0.62776694  0.88159417  0.01939915     0.36130
C1912       C  0.70958108  0.93095559  0.05493929     0.36130
N1913       N  0.61118556  0.87154390  0.01227703    -0.38690
N1914       N  0.72610972  0.94104903  0.06247992    -0.38690
N1915       N  0.65044886  0.87239518  0.43760870    -0.38140
N1916       N  0.68506283  0.93648722  0.14094669    -0.38140
C1917       C  0.67904294  0.82181398  0.19825241    -0.04810
C1918       C  0.66143966  0.80330018  0.19355459    -0.01920
C1919       C  0.64501923  0.80221271  0.17927456     0.03070
C1920       C  0.64760685  0.81864489  0.16000409    -0.04800
C1921       C  0.66638987  0.83615443  0.15766805    -0.01910
C1922       C  0.68130543  0.83827249  0.18116103     0.03060
C1923       C  0.66020082  0.78543277  0.20180902     0.37710
C1924       C  0.67009370  0.85311739  0.13659646     0.37700
C1925       C  0.69830261  0.85750576  0.18988248     0.36130
C1926       C  0.62571138  0.78565663  0.19123682     0.36130
N1927       N  0.71137267  0.87307306  0.19728883    -0.38690
N1928       N  0.61051354  0.77255313  0.20217087    -0.38690
N1929       N  0.67491560  0.86747127  0.12043065    -0.38140
N1930       N  0.65911387  0.77102944  0.20691095    -0.38140
C1931       C  0.48993867  0.92964573  0.16231639    -0.04810
C1932       C  0.48852360  0.92479312  0.12052329    -0.01920
C1933       C  0.47248746  0.92192009  0.09799565     0.03070
C1934       C  0.45878364  0.92516857  0.11663609    -0.04800
C1935       C  0.45826902  0.92599110  0.15931704    -0.01910
C1936       C  0.47263449  0.92585212  0.18175009     0.03060
C1937       C  0.50263260  0.92166850  0.10124986     0.37710
C1938       C  0.44289221  0.92665394  0.18013886     0.37700
C1939       C  0.46681128  0.91525078  0.21945707     0.36130
C1940       C  0.47016071  0.91566268  0.05605846     0.36130
N1941       N  0.46170969  0.90513027  0.24744188    -0.38690
N1942       N  0.46842555  0.91040888  0.02270627    -0.38690
N1943       N  0.43065068  0.92730187  0.19668737    -0.38140
N1944       N  0.51383430  0.91910881  0.08571485    -0.38140
C1945       C  0.49763033  0.92418601  0.34709465    -0.04810
C1946       C  0.48182633  0.92470656  0.33102771    -0.01920
C1947       C  0.46256604  0.91250373  0.34709745     0.03070
C1948       C  0.45972570  0.90428193  0.38537450    -0.04800
C1949       C  0.47437966  0.90166614  0.39932728    -0.01910
C1950       C  0.49306846  0.91098908  0.37925951     0.03060
C1951       C  0.48496827  0.93932919  0.30234932     0.37710
C1952       C  0.47024602  0.88976348  0.43495314     0.37700
C1953       C  0.50815430  0.90880827  0.39486276     0.36130
C1954       C  0.44550897  0.90854280  0.32539578     0.36130
N1955       N  0.52019870  0.90703009  0.40726233    -0.38690
N1956       N  0.43136674  0.90388624  0.30807723    -0.38690
N1957       N  0.46686386  0.88005260  0.46313889    -0.38140
N1958       N  0.48567138  0.95059752  0.28057237    -0.38140
C1959       C  0.57318719  0.91703039  0.23641243    -0.04810
C1960       C  0.56307744  0.89794506  0.25258717    -0.01920
C1961       C  0.56856822  0.88507244  0.24062364     0.03070
C1962       C  0.58407842  0.89092548  0.21201578    -0.04800
C1963       C  0.59368868  0.90959304  0.19460320    -0.01910
C1964       C  0.58851818  0.92266594  0.20697733     0.03060
C1965       C  0.54671622  0.89124959  0.28096537     0.37710
C1966       C  0.60965428  0.91572986  0.16539624     0.37700
C1967       C  0.59976951  0.94225714  0.19035727     0.36130
C1968       C  0.55824440  0.86564634  0.25801343     0.36130
N1969       N  0.60876841  0.95784615  0.17695251    -0.38690
N1970       N  0.55006008  0.85016982  0.27188342    -0.38690
N1971       N  0.62235361  0.92057648  0.14206931    -0.38140
N1972       N  0.53365535  0.88584808  0.30360862    -0.38140
C1973       C  0.53822257  0.01206123  0.26427124    -0.04810
C1974       C  0.55005978  0.03087037  0.28256182    -0.01920
C1975       C  0.54936075  0.04618372  0.26740788     0.03070
C1976       C  0.53777478  0.04278140  0.23360829    -0.04800
C1977       C  0.53234304  0.02704331  0.20787368    -0.01910
C1978       C  0.53092730  0.01077907  0.22442645     0.03060
C1979       C  0.56289530  0.03496999  0.31651796     0.37710
C1980       C  0.52312203  0.02560457  0.16943546     0.37700
C1981       C  0.52085659  0.99292133  0.20077634     0.36130
C1982       C  0.55722300  0.06402459  0.29071420     0.36130
N1983       N  0.51259557  0.97904202  0.18080264    -0.38690
N1984       N  0.56335392  0.07809215  0.30976497    -0.38690
N1985       N  0.51533107  0.02461808  0.13962321    -0.38140
N1986       N  0.57366345  0.03872803  0.34282398    -0.38140
C1987       C  0.58846251  0.98475173  0.39494447    -0.04810
C1988       C  0.58310344  0.98090513  0.43594004    -0.01920
C1989       C  0.58203644  0.99480843  0.45877907     0.03070
C1990       C  0.59415615  0.01533107  0.44886914    -0.04800
C1991       C  0.60504403  0.01997529  0.41160401    -0.01910
C1992       C  0.60120449  0.00466868  0.38372569     0.03060
C1993       C  0.57312264  0.96090256  0.45032988     0.37710
C1994       C  0.61823743  0.04012403  0.39966295     0.37700
C1995       C  0.60987264  0.00922098  0.34327011     0.36130
C1996       C  0.56386119  0.98629234  0.48186825     0.36130
N1997       N  0.61698488  0.01273322  0.31103501    -0.38690
N1998       N  0.54834314  0.97879271  0.49636391    -0.38690
N1999       N  0.62889955  0.05624314  0.39008116    -0.38140
N2000       N  0.56501188  0.94500907  0.46185031    -0.38140
C2001       C  0.57372687  0.00248219  0.17836284    -0.04810
C2002       C  0.57936070  0.01888530  0.20345674    -0.01920
C2003       C  0.58489037  0.03687994  0.18612125     0.03070
C2004       C  0.58742599  0.03948471  0.14382128    -0.04800
C2005       C  0.58721602  0.02468742  0.12048736    -0.01910
C2006       C  0.57870962  0.00580926  0.13675440     0.03060
C2007       C  0.58216664  0.01829828  0.24646846     0.37710
C2008       C  0.59844038  0.02905750  0.08308829     0.37700
C2009       C  0.57486889  0.98988459  0.11030492     0.36130
C2010       C  0.58932242  0.05318486  0.21184196     0.36130
N2011       N  0.57177841  0.97721281  0.08909388    -0.38690
N2012       N  0.59322720  0.06636785  0.23219693    -0.38690
N2013       N  0.60791676  0.03146297  0.05432790    -0.38140
N2014       N  0.58575169  0.01909194  0.28057811    -0.38140
C2015       C  0.43946468  0.49616430  0.38258558    -0.04810
C2016       C  0.44777382  0.49584240  0.41923158    -0.01920
C2017       C  0.46551338  0.51258977  0.43110034     0.03070
C2018       C  0.46997792  0.53110043  0.42099339    -0.04800
C2019       C  0.45916793  0.53218549  0.38921079    -0.01910
C2020       C  0.44472658  0.51471039  0.36814725     0.03060
C2021       C  0.44015987  0.47739935  0.43942174     0.37710
C2022       C  0.46374465  0.55099985  0.37663541     0.37700
C2023       C  0.43559949  0.51590465  0.33216444     0.36130
C2024       C  0.48208262  0.51100416  0.43406915     0.36130
N2025       N  0.42822915  0.51706341  0.30368626    -0.38690
N2026       N  0.49585549  0.51042821  0.43219346    -0.38690
N2027       N  0.46743811  0.56607309  0.36654346    -0.38140
N2028       N  0.43326592  0.46208516  0.45342949    -0.38140
C2029       C  0.46169128  0.53446836  0.17448466    -0.04810
C2030       C  0.47757804  0.55040469  0.19658949    -0.01920
C2031       C  0.49443849  0.56557977  0.17570536     0.03070
C2032       C  0.49516029  0.56615904  0.13301301    -0.04800
C2033       C  0.47733317  0.55377637  0.11239489    -0.01910
C2034       C  0.46103192  0.53733807  0.13228809     0.03060
C2035       C  0.47747817  0.55116332  0.24075965     0.37710
C2036       C  0.47576915  0.55810883  0.07077011     0.37700
C2037       C  0.44390316  0.52347928  0.10898253     0.36130
C2038       C  0.51181953  0.57977720  0.19802466     0.36130
N2039       N  0.43027199  0.51244901  0.09016444    -0.38690
N2040       N  0.52553486  0.59099823  0.21636750    -0.38690
N2041       N  0.47379288  0.56183868  0.03820529    -0.38140
N2042       N  0.47761527  0.55194943  0.27595534    -0.38140
C2043       C  0.58655224  0.59636425  0.12779340    -0.04810
C2044       C  0.59944790  0.59058496  0.11695452    -0.01920
C2045       C  0.60475883  0.58175496  0.14608495     0.03070
C2046       C  0.59810900  0.57967476  0.18685499    -0.04800
C2047       C  0.58985587  0.59021354  0.19914650    -0.01910
C2048       C  0.58463760  0.59896737  0.16969436     0.03060
C2049       C  0.60650533  0.59287604  0.07539678     0.37710
C2050       C  0.58481515  0.59021967  0.24166335     0.37700
C2051       C  0.57517574  0.60876070  0.18187469     0.36130
C2052       C  0.61512115  0.57290774  0.13325824     0.36130
N2053       N  0.56791520  0.61693067  0.19126690    -0.38690
N2054       N  0.62337464  0.56579698  0.12316681    -0.38690
N2055       N  0.58074125  0.59017949  0.27561507    -0.38140
N2056       N  0.61304418  0.59512277  0.04280431    -0.38140
C2057       C  0.56152422  0.53346324  0.37840743    -0.04810
C2058       C  0.56965875  0.54393700  0.41526165    -0.01920
C2059       C  0.56119764  0.55281243  0.43546577     0.03070
C2060       C  0.54445892  0.55113689  0.41990092    -0.04800
C2061       C  0.53706612  0.54194731  0.38221381    -0.01910
C2062       C  0.54572942  0.53347557  0.36121314     0.03060
C2063       C  0.58695973  0.54610415  0.43247130     0.37710
C2064       C  0.52100015  0.54194444  0.36421907     0.37700
C2065       C  0.53963658  0.52683307  0.32002808     0.36130
C2066       C  0.57015050  0.56443628  0.47156888     0.36130
N2067       N  0.53507444  0.52238190  0.28661183    -0.38690
N2068       N  0.57722064  0.57404501  0.50006894    -0.38690
N2069       N  0.50825999  0.54202663  0.34984058    -0.38140
N2070       N  0.60086092  0.54806512  0.44624321    -0.38140
C2071       C  0.50845254  0.50660116  0.02930323    -0.04810
C2072       C  0.52825063  0.51279307  0.02352966    -0.01920
C2073       C  0.53286182  0.50245774  0.99670520     0.03070
C2074       C  0.51766709  0.48573909  0.97679742    -0.04800
C2075       C  0.49842062  0.48142045  0.47863636    -0.01910
C2076       C  0.49365911  0.49098866  0.50675118     0.03060
C2077       C  0.54369826  0.52868469  0.04712227     0.37710
C2078       C  0.48334079  0.46770010  0.45121588     0.37700
C2079       C  0.47362549  0.48589496  0.51084752     0.36130
C2080       C  0.55272664  0.50704928  0.99402799     0.36130
N2081       N  0.45805440  0.48259493  0.51615042    -0.38690
N2082       N  0.56840937  0.51029136  0.99215191    -0.38690
N2083       N  0.47050805  0.45786352  0.42953191    -0.38140
N2084       N  0.55639105  0.54106846  0.06597131    -0.38140
C2085       C  0.61320542  0.78491181  0.35623288    -0.04810
C2086       C  0.62833659  0.80017009  0.33194140    -0.01920
C2087       C  0.62524675  0.81267762  0.30975690     0.03070
C2088       C  0.60692116  0.81067340  0.31154589    -0.04800
C2089       C  0.59156572  0.79538537  0.33532813    -0.01910
C2090       C  0.59463668  0.78256561  0.35751035     0.03060
C2091       C  0.64755043  0.80329680  0.32873733     0.37710
C2092       C  0.57251401  0.79271916  0.33656534     0.37700
C2093       C  0.57874793  0.76734130  0.38226105     0.36130
C2094       C  0.64149107  0.82736459  0.28464005     0.36130
N2095       N  0.56587691  0.75519061  0.40176720    -0.38690
N2096       N  0.65549915  0.83825177  0.26586815    -0.38690
N2097       N  0.55729378  0.79059644  0.33753761    -0.38140
N2098       N  0.66317296  0.80657966  0.32527121    -0.38140
C2099       C  0.57917430  0.77949121  0.04571661    -0.04810
C2100       C  0.56530529  0.78482951  0.04769045    -0.01920
C2101       C  0.57034515  0.80245212  0.06953646     0.03070
C2102       C  0.59036172  0.81633473  0.08013871    -0.04800
C2103       C  0.60356894  0.81134903  0.06752318    -0.01910
C2104       C  0.59687332  0.79190966  0.06401235     0.03060
C2105       C  0.54632832  0.77228745  0.02935717     0.37710
C2106       C  0.61991095  0.82472666  0.04114115     0.37700
C2107       C  0.60228774  0.78301555  0.09331608     0.34690
C2108       C  0.55593173  0.80705904  0.07676753     0.36130
N2109       N  0.60545840  0.77442315  0.11556872    -0.38690
N2110       N  0.54437973  0.81077271  0.08257238    -0.38690
N2111       N  0.63270713  0.83612323  0.02037342    -0.38140
N2112       N  0.53112553  0.76221172  0.01455910    -0.38140
C2113       C  0.58841770  0.68419880  0.48382760    -0.04810
C2114       C  0.58724692  0.67593834  0.52199884    -0.01920
C2115       C  0.57820320  0.65567451  0.52575304     0.03070
C2116       C  0.56840686  0.64318329  0.49209352    -0.04800
C2117       C  0.57089030  0.65188867  0.45306474    -0.01910
C2118       C  0.58139302  0.67228545  0.44908028     0.03060
C2119       C  0.59448919  0.68814157  0.05822659     0.37710
C2120       C  0.56182158  0.64030435  0.41667401     0.37700
C2121       C  0.58320231  0.68091028  0.40951709     0.36130
C2122       C  0.57905232  0.64796608  0.06466711     0.36130
N2123       N  0.58458469  0.68774411  0.37804900    -0.38690
N2124       N  0.57991884  0.64198410  0.09563962    -0.38690
N2125       N  0.55456369  0.63127183  0.38749978    -0.38140
N2126       N  0.60002227  0.69767374  0.08730267    -0.38140
C2127       C  0.65431033  0.82227511  0.47808392    -0.04810
C2128       C  0.65665614  0.83058730  0.43982024    -0.01920
C2129       C  0.67396953  0.83655131  0.41749080     0.03070
C2130       C  0.68884937  0.83524419  0.43607811    -0.04800
C2131       C  0.68589870  0.82844395  0.47653006    -0.01910
C2132       C  0.67146565  0.82855859  0.49900874     0.03060
C2133       C  0.64021911  0.82969532  0.42157498     0.37710
C2134       C  0.70016840  0.82642230  0.49713759     0.37700
C2135       C  0.67802094  0.84389427  0.52825182     0.36130
C2136       C  0.67650555  0.84458826  0.37722321     0.36130
N2137       N  0.68442681  0.85686318  0.04984926    -0.38690
N2138       N  0.67831808  0.85085084  0.34494951    -0.38690
N2139       N  0.71156972  0.82468729  0.51312124    -0.38140
N2140       N  0.62702276  0.82893214  0.40718549    -0.38140
C2141       C  0.65115392  0.74305987  0.33833072    -0.04810
C2142       C  0.65719737  0.75732816  0.30840539    -0.01920
C2143       C  0.67746003  0.76986369  0.30034600     0.03070
C2144       C  0.68898496  0.76196799  0.29732290    -0.04800
C2145       C  0.68124624  0.74404985  0.31825553    -0.01910
C2146       C  0.66333767  0.73584854  0.34231520     0.03060
C2147       C  0.64381634  0.76245619  0.29586552     0.37710
C2148       C  0.69278971  0.73576165  0.31967514     0.37700
C2149       C  0.65793215  0.72082093  0.37194642     0.36130
C2150       C  0.68662359  0.78871438  0.31978824     0.36130
N2151       N  0.65358542  0.70879417  0.39572973    -0.38690
N2152       N  0.69474899  0.80352256  0.33674264    -0.38690
N2153       N  0.70206318  0.72915032  0.32072013    -0.38140
N2154       N  0.63251613  0.76565417  0.28510817    -0.38140
C2155       C  0.64026814  0.76590632  0.06166773    -0.04810
C2156       C  0.65224458  0.78584868  0.07363174    -0.01920
C2157       C  0.67174345  0.79453530  0.08704230     0.03070
C2158       C  0.67977945  0.78342173  0.09243914    -0.04800
C2159       C  0.66835502  0.76364458  0.08001387    -0.01910
C2160       C  0.64924751  0.75526602  0.06321225     0.03060
C2161       C  0.64551470  0.79851921  0.07103326     0.37710
C2162       C  0.67629562  0.75184398  0.08382964     0.37700
C2163       C  0.64023026  0.73657891  0.04310064     0.36130
C2164       C  0.68423335  0.81557356  0.09260010     0.36130
N2165       N  0.63400099  0.72200966  0.02596036    -0.38690
N2166       N  0.69476497  0.83225737  0.09680847    -0.38690
N2167       N  0.68261663  0.74240236  0.08683296    -0.38140
N2168       N  0.64198122  0.81018622  0.06964715    -0.38140
C2169       C  0.19046221  0.84931780  0.17482304    -0.04810
C2170       C  0.20777115  0.85121202  0.16036080    -0.01920
C2171       C  0.20614519  0.83582515  0.13877860     0.03070
C2172       C  0.18747647  0.81854072  0.13567686    -0.04800
C2173       C  0.17018859  0.81803655  0.14429099    -0.01910
C2174       C  0.17183240  0.83397309  0.16245453     0.03060
C2175       C  0.22707114  0.86847594  0.16867347     0.37710
C2176       C  0.15066644  0.80037625  0.14610036     0.37700
C2177       C  0.15409125  0.83366771  0.17173436     0.36130
C2178       C  0.22364892  0.83629952  0.12752601     0.36130
N2179       N  0.14000327  0.83341380  0.17828552    -0.38690
N2180       N  0.23776093  0.83682790  0.11949373    -0.38690
N2181       N  0.13424051  0.78835623  0.15167716    -0.38140
N2182       N  0.24258971  0.88201825  0.17539561    -0.38140
C2183       C  0.13215603  0.77358649  0.27682283    -0.04810
C2184       C  0.11235343  0.76037659  0.29114082    -0.01920
C2185       C  0.10139615  0.76736786  0.30924852     0.03070
C2186       C  0.10922211  0.78749286  0.31033606    -0.04800
C2187       C  0.12736710  0.80014485  0.28979237    -0.01910
C2188       C  0.13927424  0.79367280  0.27579930     0.03060
C2189       C  0.10300676  0.73950659  0.28768142     0.37710
C2190       C  0.13367127  0.81995100  0.28136784     0.37700
C2191       C  0.15935106  0.80824851  0.26298392     0.36130
C2192       C  0.08226509  0.75384734  0.32773581     0.36130
N2193       N  0.17544948  0.81997302  0.25357157    -0.38690
N2194       N  0.06695385  0.74306536  0.34241266    -0.38690
N2195       N  0.13903932  0.83567959  0.27259123    -0.38140
N2196       N  0.09540756  0.72282693  0.28472743    -0.38140
C2197       C  0.09497585  0.73314051  0.09391417    -0.04810
C2198       C  0.08402473  0.74037701  0.11043708    -0.01920
C2199       C  0.07749038  0.74959639  0.08518937     0.03070
C2200       C  0.08086065  0.75093225  0.04259629    -0.04800
C2201       C  0.08849363  0.74050616  0.02559069    -0.01910
C2202       C  0.09514508  0.73143786  0.05098020     0.03060
C2203       C  0.08241365  0.74122420  0.15432628     0.37710
C2204       C  0.09184523  0.74123975  0.98194857     0.37700
C2205       C  0.10507520  0.72299033  0.03298559     0.36130
C2206       C  0.06908644  0.75949091  0.10344876     0.36130
N2207       N  0.11307258  0.71628314  0.01875189    -0.38690
N2208       N  0.06240195  0.76744119  0.11794472    -0.38690
N2209       N  0.09473328  0.74204058  0.44719535    -0.38140
N2210       N  0.08123120  0.74199352  0.18936790    -0.38140
C2211       C  0.21510049  0.79142230  0.29357088    -0.04810
C2212       C  0.23197220  0.80818294  0.27492648    -0.01920
C2213       C  0.24729083  0.82340339  0.29889254     0.03070
C2214       C  0.24674488  0.82220770  0.34168431    -0.04800
C2215       C  0.23244606  0.80391319  0.35909237    -0.01910
C2216       C  0.21652993  0.78886560  0.33581600     0.03060
C2217       C  0.23388293  0.81027603  0.23102677     0.37710
C2218       C  0.23424539  0.80059244  0.40138720     0.37700
C2219       C  0.20178695  0.77081653  0.35584128     0.36130
C2220       C  0.26308395  0.84119201  0.27972819     0.36130
N2221       N  0.19006999  0.75642279  0.37198841    -0.38690
N2222       N  0.27573879  0.85537803  0.26448763    -0.38690
N2223       N  0.23577376  0.79730220  0.43468585    -0.38140
N2224       N  0.23557952  0.81193135  0.19599245    -0.38140
C2225       C  0.18455691  0.76413903  0.07284483    -0.04810
C2226       C  0.18343708  0.77478705  0.04036393    -0.01920
C2227       C  0.19878324  0.79432888  0.03330216     0.03070
C2228       C  0.21824003  0.80163118  0.04459953    -0.04800
C2229       C  0.22070927  0.78984306  0.07173856    -0.01910
C2230       C  0.20380963  0.77190495  0.08795914     0.03060
C2231       C  0.16571133  0.76678810  0.01665687     0.37710
C2232       C  0.24032421  0.79630724  0.08382761     0.37700
C2233       C  0.20626669  0.76159834  0.11987745     0.36130
C2234       C  0.19359563  0.80778108  0.02160913     0.36130
N2235       N  0.20823252  0.75329836  0.14533992    -0.38690
N2236       N  0.18895227  0.81836080  0.01468251    -0.38690
N2237       N  0.25602923  0.80141869  0.09342352    -0.38140
N2238       N  0.15166774  0.76071093  0.99771843    -0.38140
C2239       C  0.09594956  0.64226507  0.25093750    -0.04810
C2240       C  0.11468349  0.65551483  0.26701327    -0.01920
C2241       C  0.12533036  0.67538764  0.25583553     0.03070
C2242       C  0.11732386  0.68223325  0.22829057    -0.04800
C2243       C  0.09802312  0.66920105  0.21438258    -0.01910
C2244       C  0.08735473  0.64935286  0.22586688     0.03060
C2245       C  0.12350248  0.64839901  0.29295013     0.37710
C2246       C  0.08911633  0.67619890  0.18839560     0.37700
C2247       C  0.06779025  0.63583167  0.21009432     0.36130
C2248       C  0.14500854  0.68864620  0.27129024     0.36130
N2249       N  0.05220368  0.62498013  0.19755554    -0.38690
N2250       N  0.16069891  0.69923160  0.28359866    -0.38690
N2251       N  0.08202420  0.68180018  0.16765103    -0.38140
N2252       N  0.13049012  0.64267428  0.31365232    -0.38140
C2253       C  0.01075026  0.56048818  0.34214275    -0.04810
C2254       C  0.01338751  0.57782036  0.35837972    -0.01920
C2255       C  0.99775881  0.57749873  0.37986258     0.03070
C2256       C  0.97864272  0.55999729  0.38535906    -0.04800
C2257       C  0.97504949  0.54369663  0.36313304    -0.01910
C2258       C  0.99089264  0.54334730  0.34472522     0.03060
C2259       C  0.03247833  0.59606730  0.35514221     0.37710
C2260       C  0.95492797  0.52706109  0.35945165     0.37700
C2261       C  0.98627535  0.52448834  0.33161419     0.36130
C2262       C  0.00152248  0.59548160  0.39725906     0.36130
N2263       N  0.98202221  0.50899207  0.32315370    -0.38690
N2264       N  0.00452539  0.60982578  0.41113834    -0.38690
N2265       N  0.93885826  0.51388240  0.35571639    -0.38140
N2266       N  0.04768690  0.61069707  0.35263182    -0.38140
C2267       C  0.03052725  0.56498644  0.15140418    -0.04810
C2268       C  0.02829900  0.56913427  0.11106948    -0.01920
C2269       C  0.00979418  0.56466006  0.09795065     0.03070
C2270       C  0.99280122  0.55384082  0.12309962    -0.04800
C2271       C  0.99547882  0.55195854  0.16438058    -0.01910
C2272       C  0.01462655  0.55940898  0.17885188     0.03060
C2273       C  0.04530033  0.57922907  0.08397777     0.37710
C2274       C  0.97881710  0.54374324  0.19236609     0.37700
C2275       C  0.01878836  0.56708855  0.21947775     0.36130
C2276       C  0.00871779  0.57343197  0.06117290     0.36130
N2277       N  0.02153433  0.57488570  0.25040085    -0.38690
N2278       N  0.00826316  0.58114165  0.03247022    -0.38690
N2279       N  0.96548921  0.53726490  0.21465419    -0.38140
N2280       N  0.05896679  0.58736994  0.06259016    -0.38140
C2281       C  0.03325270  0.50241359  0.23217540    -0.04810
C2282       C  0.02912239  0.48883844  0.26206800    -0.01920
C2283       C  0.01265029  0.48214728  0.28689323     0.03070
C2284       C  0.99889995  0.48668245  0.27702695    -0.04800
C2285       C  0.00249505  0.49921979  0.24486666    -0.01910
C2286       C  0.01871985  0.50538680  0.22001996     0.03060
C2287       C  0.04283446  0.48330906  0.26906478     0.37710
C2288       C  0.98806585  0.50348160  0.23419085     0.37700
C2289       C  0.02033720  0.51509604  0.18268280     0.36130
C2290       C  0.01000307  0.47047001  0.32174275     0.36130
N2291       N  0.02011694  0.52225091  0.15303924    -0.38690
N2292       N  0.00886457  0.46156508  0.34965037    -0.38690
N2293       N  0.97642253  0.50657894  0.22562935    -0.38140
N2294       N  0.05351486  0.47856620  0.27437218    -0.38140
C2295       C  0.22309282  0.41479070  0.30887066    -0.04810
C2296       C  0.21053238  0.42093784  0.29859928    -0.01920
C2297       C  0.19288593  0.41449595  0.32135074     0.03070
C2298       C  0.18743643  0.40177831  0.35482211    -0.04800
C2299       C  0.20111010  0.39735515  0.36717225    -0.01910
C2300       C  0.21875793  0.40396875  0.34495179     0.03060
C2301       C  0.21561002  0.43381469  0.26423620     0.37710
C2302       C  0.19738733  0.38578389  0.40303142     0.37700
C2303       C  0.23180035  0.39839680  0.35826500     0.36130
C2304       C  0.17965976  0.41977842  0.30823381     0.36130
N2305       N  0.24210499  0.39391015  0.36911397    -0.38690
N2306       N  0.16908959  0.42398578  0.29771642    -0.38690
N2307       N  0.19617423  0.37731439  0.43187014    -0.38140
N2308       N  0.21956035  0.44424744  0.23711497    -0.38140
C2309       C  0.20438685  0.40962979  0.03567490    -0.04810
C2310       C  0.21965493  0.41082055  0.01212001    -0.01920
C2311       C  0.23439795  0.40974041  0.03082127     0.03070
C2312       C  0.23659381  0.41171769  0.07339838    -0.04800
C2313       C  0.22483025  0.41652488  0.09559434    -0.01910
C2314       C  0.20824296  0.41466686  0.07737448     0.03060
C2315       C  0.22278101  0.41770343  0.97068497     0.37710
C2316       C  0.22975114  0.42337434  0.13699877     0.37700
C2317       C  0.19590565  0.41879817  0.10121561     0.36130
C2318       C  0.24741398  0.40691191  0.00592684     0.36130
N2319       N  0.18642321  0.42258104  0.12032398    -0.38690
N2320       N  0.25759847  0.40454610  0.98551416    -0.38690
N2321       N  0.23401128  0.42952293  0.16963128    -0.38140
N2322       N  0.22627624  0.42456164  0.93857761    -0.38140
C2323       C  0.08963337  0.31451049  0.27959870    -0.04810
C2324       C  0.09339453  0.33138192  0.25956324    -0.01920
C2325       C  0.09725139  0.34794254  0.28221512     0.03070
C2326       C  0.09680045  0.34772622  0.32528078    -0.04800
C2327       C  0.08891896  0.32942492  0.34425992    -0.01910
C2328       C  0.08591797  0.31313727  0.32187648     0.03060
C2329       C  0.09423213  0.33203470  0.21552095     0.37710
C2330       C  0.08593699  0.32780117  0.38770168     0.37700
C2331       C  0.08073660  0.29552990  0.34290117     0.36130
C2332       C  0.10375572  0.36598106  0.26141126     0.36130
N2333       N  0.07659320  0.28147570  0.35971554    -0.38690
N2334       N  0.10898329  0.38040970  0.24484292    -0.38690
N2335       N  0.08314555  0.32579827  0.42237876    -0.38140
N2336       N  0.09451839  0.33255618  0.18032886    -0.38140
C2337       C  0.12090953  0.34829264  0.06025660    -0.04810
C2338       C  0.10460296  0.33069933  0.04578294    -0.01920
C2339       C  0.10029690  0.31256324  0.05993140     0.03070
C2340       C  0.11087034  0.31179403  0.09290190    -0.04800
C2341       C  0.12432101  0.32976694  0.11289144    -0.01910
C2342       C  0.12996993  0.34781048  0.09544388     0.03060
C2343       C  0.09082887  0.33138688  0.52026834     0.37710
C2344       C  0.13042034  0.33037490  0.15385197     0.37700
C2345       C  0.14451347  0.36601284  0.11487688     0.36130
C2346       C  0.08525632  0.29490882  0.03957527     0.36130
N2347       N  0.15592555  0.38033658  0.13126287    -0.38690
N2348       N  0.07327588  0.28085533  0.02313487    -0.38690
N2349       N  0.13514055  0.33250928  0.18741905    -0.38140
N2350       N  0.07935143  0.33244947  0.50276812    -0.38140
C2351       C  0.19422061  0.33972522  0.42994631    -0.04810
C2352       C  0.18542490  0.33889234  0.39326007    -0.01920
C2353       C  0.16521309  0.33043117  0.39293301     0.03070
C2354       C  0.15529526  0.32749555  0.43048881    -0.04800
C2355       C  0.16396714  0.32797820  0.46718604    -0.01910
C2356       C  0.18415465  0.33642131  0.46738751     0.03060
C2357       C  0.19741322  0.34609739  0.35652180     0.37710
C2358       C  0.15274729  0.32336334  0.50481209     0.37700
C2359       C  0.19432488  0.34016200  0.50557602     0.36130
C2360       C  0.15537631  0.32850836  0.35513004     0.36130
N2361       N  0.20270425  0.34330680  0.53567794    -0.38690
N2362       N  0.14683608  0.32711957  0.32622454    -0.38690
N2363       N  0.14397548  0.31993301  0.03508506    -0.38140
N2364       N  0.20728717  0.35231679  0.32761755    -0.38140
C2365       C  0.07890138  0.50959820  0.10241997    -0.04810
C2366       C  0.06539145  0.51439602  0.11540694    -0.01920
C2367       C  0.07063501  0.53369354  0.11262345     0.03070
C2368       C  0.09006654  0.54919792  0.11745304    -0.04800
C2369       C  0.10455047  0.54487070  0.11166449    -0.01910
C2370       C  0.09896787  0.52558089  0.09963444     0.03060
C2371       C  0.04637488  0.49987120  0.13290070     0.37710
C2372       C  0.12499743  0.56024883  0.11724076     0.37700
C2373       C  0.11384249  0.52205294  0.08794374     0.36130
C2374       C  0.05659955  0.53804269  0.10162525     0.36130
N2375       N  0.12574639  0.51922592  0.07851249    -0.38690
N2376       N  0.04656398  0.54279726  0.09074832    -0.38690
N2377       N  0.14136678  0.57258196  0.12172718    -0.38140
N2378       N  0.03153103  0.48770041  0.14724604    -0.38140
C2379       C  0.09105810  0.55850793  0.34649396    -0.04810
C2380       C  0.09328589  0.55983624  0.38892019    -0.01920
C2381       C  0.09424229  0.54555307  0.41035164     0.03070
C2382       C  0.09039843  0.52837428  0.38995007    -0.04800
C2383       C  0.09267979  0.52951012  0.34716313    -0.01910
C2384       C  0.09410947  0.54518233  0.32593754     0.03060
C2385       C  0.09298763  0.57502340  0.41071492     0.37710
C2386       C  0.09376019  0.51488862  0.32494693     0.37700
C2387       C  0.09897571  0.54773867  0.28302236     0.36130
C2388       C  0.09808082  0.54817434  0.45368169     0.36130
N2389       N  0.10345487  0.54960124  0.24895687    -0.38690
N2390       N  0.10112476  0.55028496  0.48823660    -0.38690
N2391       N  0.09492999  0.50337125  0.30721581    -0.38140
N2392       N  0.09270261  0.58713070  0.42812021    -0.38140
C2393       C  0.11728464  0.42299318  0.46064681    -0.04810
C2394       C  0.09688858  0.41260098  0.45420982    -0.01920
C2395       C  0.08632294  0.42067044  0.46652673     0.03070
C2396       C  0.09612921  0.43928689  0.48504039    -0.04800
C2397       C  0.11649560  0.44957615  0.49203474    -0.01910
C2398       C  0.12703320  0.44136174  0.48011345     0.03060
C2399       C  0.08665895  0.39330625  0.43604870     0.37710
C2400       C  0.12670667  0.46888269  0.51004183     0.37700
C2401       C  0.14794127  0.45178925  0.48779563     0.36130
C2402       C  0.06524957  0.40978184  0.46020551     0.36130
N2403       N  0.16462141  0.46009985  0.49388684    -0.38690
N2404       N  0.04845785  0.40113276  0.45519183    -0.38690
N2405       N  0.13479956  0.48432639  0.02432902    -0.38140
N2406       N  0.07848371  0.37790953  0.42165581    -0.38140
C2407       C  0.02877646  0.50851396  0.02381642    -0.04810
C2408       C  0.03504101  0.52495281  0.49994653    -0.01920
C2409       C  0.02708363  0.53557858  0.50769695     0.03070
C2410       C  0.00979538  0.52681737  0.03188645    -0.04800
C2411       C  0.00463152  0.51153334  0.05859536    -0.01910
C2412       C  0.01382375  0.50180120  0.05375322     0.03060
C2413       C  0.04637694  0.52878643  0.46271988     0.37710
C2414       C  0.98990107  0.50577870  0.09050165     0.37700
C2415       C  0.00583491  0.48346598  0.07496582     0.36130
C2416       C  0.03544141  0.55416610  0.48708853     0.36130
N2417       N  0.99887335  0.46865911  0.09138564    -0.38690
N2418       N  0.04216636  0.56892402  0.47060600    -0.38690
N2419       N  0.97888748  0.50134214  0.11742319    -0.38140
N2420       N  0.05380829  0.53110476  0.43115182    -0.38140
C2421       C  0.01761465  0.41770870  0.11046766    -0.04810
C2422       C  0.99707515  0.40518147  0.10291618    -0.01920
C2423       C  0.98287353  0.40128882  0.13394694     0.03070
C2424       C  0.98905857  0.40899612  0.17343239    -0.04800
C2425       C  0.00919943  0.41703308  0.18269105    -0.01910
C2426       C  0.02328940  0.42124475  0.15138924     0.03060
C2427       C  0.99080317  0.39910241  0.06140754     0.37710
C2428       C  0.01609977  0.42330440  0.22378376     0.37700
C2429       C  0.04406487  0.43201638  0.16053074     0.36130
C2430       C  0.96227981  0.39127761  0.12403283     0.36130
N2431       N  0.06065538  0.44066329  0.16775395    -0.38690
N2432       N  0.94580628  0.38324497  0.11614949    -0.38690
N2433       N  0.02205611  0.42880968  0.25613700    -0.38140
N2434       N  0.98583296  0.39433128  0.02821383    -0.38140
C2435       C  0.01666904  0.44037326  0.41365269    -0.04810
C2436       C  0.01178227  0.42848333  0.37845844    -0.01920
C2437       C  0.99221745  0.41796442  0.36374055     0.03070
C2438       C  0.97737779  0.41842440  0.38530675    -0.04800
C2439       C  0.98117323  0.42605365  0.42462450    -0.01910
C2440       C  0.00074503  0.43813943  0.43771417     0.03060
C2441       C  0.02701870  0.42836911  0.35552817     0.37710
C2442       C  0.96487813  0.42293514  0.45004817     0.37700
C2443       C  0.00361662  0.44891074  0.47474955     0.36130
C2444       C  0.98733172  0.40685955  0.32638460     0.36130
N2445       N  0.00420128  0.45675179  0.50460099    -0.38690
N2446       N  0.98339989  0.39769659  0.29689562    -0.38690
N2447       N  0.95192086  0.42045410  0.47024368    -0.38140
N2448       N  0.03928515  0.42827581  0.33759504    -0.38140
O2449       O  0.07984819  0.45116256  0.95285384    -0.80360
O2450       O  0.04086447  0.49415089  0.98455280    -0.65050
O2451       O  0.07643343  0.47978778  0.98011830    -1.11650
C2452       C  0.02954349  0.43433462  0.58131466     1.06530
O2453       O  0.04453546  0.49523589  0.54971003    -0.78260
O2454       O  0.05344591  0.47535013  0.59814462    -0.65840
Ni2455     Ni  0.07943742  0.47196815  0.92798264     1.34870
C2456       C  0.07074548  0.48861195  0.58787018     0.85260
O2457       O  0.07462736  0.50895295  0.94806009    -0.78800
O2458       O  0.08144784  0.49442763  0.89978511    -0.89070
C2459       C  0.03858110  0.49900366  0.51899370     0.84840
O2460       O  0.05147484  0.45293955  0.91960391    -0.67270
O2461       O  0.02074434  0.44264202  0.57411137    -0.86560
C2462       C  0.03782567  0.45578931  0.92385711     0.85670
C2463       C  0.08212624  0.50952221  0.91372610     1.07240
H2464       H  0.03384576  0.45391160  0.50214461     0.39040
O2465       O  0.04376111  0.46537974  0.51625860    -1.09220
O2466       O  0.07870469  0.48421567  0.55981173    -0.65870
Ni2467     Ni  0.06333551  0.46091710  0.52351654     1.26350
O2468       O  0.04191654  0.47202491  0.93687516    -0.66100
O2469       O  0.04757164  0.44123844  0.56839420    -0.78390
C2470       C  0.08606900  0.44955514  0.98711454     0.85050
O2471       O  0.08324987  0.45557404  0.52121197    -0.65570
Ni2472     Ni  0.03252850  0.46891967  0.56258484     1.27450
Ni2473     Ni  0.05860103  0.48715679  0.98124985     1.26060
H2474       H  0.08918706  0.49062591  0.98862066     0.39590
O2475       O  0.12799167  0.40510077  0.99003665    -0.80360
O2476       O  0.15780822  0.35531385  0.95013021    -0.65050
O2477       O  0.15307299  0.39730237  0.95833365    -1.11650
C2478       C  0.11294910  0.36544547  0.84734453     1.06530
O2479       O  0.13334654  0.33436553  0.90918685    -0.78260
O2480       O  0.15936955  0.37161126  0.87580401    -0.65840
Ni2481     Ni  0.15033611  0.40573194  0.50955403     1.34870
C2482       C  0.16650995  0.38982057  0.87192621     0.85260
O2483       O  0.17929892  0.38994250  0.48678216    -0.78800
O2484       O  0.17398608  0.40811356  0.52953397    -0.89070
C2485       C  0.14727620  0.33895165  0.93257539     0.84840
O2486       O  0.13315533  0.38092447  0.53710129    -0.67270
O2487       O  0.12941278  0.36834700  0.84201222    -0.86560
C2488       C  0.13185554  0.36497793  0.53163482     0.85670
C2489       C  0.18470336  0.40222348  0.51610724     1.07240
H2490       H  0.12027019  0.35478861  0.94196782     0.39040
O2491       O  0.13161378  0.36382800  0.92542884    -1.09220
O2492       O  0.15585034  0.39696565  0.87946956    -0.65870
Ni2493     Ni  0.13263572  0.38664393  0.91901884     1.26350
O2494       O  0.14045975  0.36249002  0.50251202    -0.66100
O2495       O  0.11098649  0.37373818  0.87846349    -0.78390
C2496       C  0.12711217  0.41264950  0.95697185     0.85050
O2497       O  0.13243451  0.40962623  0.92206282    -0.65570
Ni2498     Ni  0.13203749  0.35204145  0.87640694     1.27450
Ni2499     Ni  0.15555308  0.37636483  0.95583750     1.26060
H2500       H  0.16492504  0.40847612  0.94677825     0.39590
O2501       O  0.05745475  0.52787469  0.77002776    -0.80360
O2502       O  0.08052561  0.60892147  0.77505665    -0.65050
O2503       O  0.05109828  0.55444555  0.75272461    -1.11650
C2504       C  0.09239554  0.56469556  0.64641140     1.06530
O2505       O  0.09264881  0.61797317  0.70991071    -0.78260
O2506       O  0.06360045  0.58836927  0.66982881    -0.65840
Ni2507     Ni  0.04071412  0.53496893  0.79286009     1.34870
C2508       C  0.05038120  0.57049150  0.66625599     0.85260
O2509       O  0.04461199  0.57590192  0.80989540    -0.78800
O2510       O  0.02443419  0.54310351  0.81462318    -0.89070
C2511       C  0.08916683  0.62158687  0.74592794     0.84840
O2512       O  0.05903329  0.54914017  0.83421369    -0.67270
O2513       O  0.08893183  0.57766699  0.63812465    -0.86560
C2514       C  0.07686448  0.56238935  0.82816849     0.85670
C2515       C  0.02786554  0.56003227  0.82139964     1.07240
H2516       H  0.09672125  0.58765364  0.73917894     0.39040
O2517       O  0.08432553  0.58337105  0.72679724    -1.09220
O2518       O  0.05424907  0.55762129  0.67339489    -0.65870
Ni2519     Ni  0.07116255  0.55713580  0.71578381     1.26350
O2520       O  0.08187773  0.57715365  0.80574269    -0.66100
O2521       O  0.09223513  0.56085766  0.68284892    -0.78390
C2522       C  0.05228889  0.52003481  0.73525805     0.85050
O2523       O  0.05870462  0.53068721  0.70466782    -0.65570
Ni2524     Ni  0.09032145  0.59754657  0.67702184     1.27450
Ni2525     Ni  0.06545163  0.58074705  0.76793203     1.26060
H2526       H  0.03975757  0.55176113  0.73812061     0.39590
O2527       O  0.18026607  0.78796184  0.62106261    -0.80360
O2528       O  0.13242596  0.71006128  0.68240843    -0.65050
O2529       O  0.15057441  0.76308222  0.66840474    -1.11650
C2530       C  0.19639672  0.77737596  0.76931867     1.06530
O2531       O  0.13303424  0.71449057  0.75070439    -0.78260
O2532       O  0.14026914  0.74945912  0.77162750    -0.65840
Ni2533     Ni  0.15280802  0.77328673  0.61582027     1.34870
C2534       C  0.14522522  0.76656132  0.76308485     0.85260
O2535       O  0.11921254  0.72903995  0.63163039    -0.78800
O2536       O  0.12553954  0.75822725  0.61188602    -0.89070
C2537       C  0.12836577  0.70349482  0.71926856     0.84840
O2538       O  0.15163810  0.75243161  0.58926046    -0.67270
O2539       O  0.18047980  0.76341201  0.78663513    -0.86560
C2540       C  0.16520414  0.75046698  0.59684176     0.85670
C2541       C  0.11401488  0.73992315  0.61498254     1.07240
H2542       H  0.17136308  0.74231738  0.70156982     0.39040
O2543       O  0.16242198  0.74588261  0.71029362    -1.09220
O2544       O  0.16122163  0.77790979  0.74323132    -0.65870
Ni2545     Ni  0.17398651  0.77233259  0.69956073     1.26350
O2546       O  0.16262544  0.74120593  0.62988794    -0.66100
O2547       O  0.19650489  0.78053686  0.73160280    -0.78390
C2548       C  0.18652588  0.80146689  0.64633087     0.85050
O2549       O  0.18580822  0.79813290  0.68380809    -0.65570
Ni2550     Ni  0.15633041  0.73926726  0.76601069     1.27450
Ni2551     Ni  0.14155969  0.73673853  0.67110224     1.26060
H2552       H  0.14125636  0.76446808  0.68373515     0.39590
O2553       O  0.58015894  0.70602204  0.00207337    -0.80360
O2554       O  0.62453889  0.79265098  0.96569181    -0.65050
O2555       O  0.58905269  0.73867821  0.96435549    -1.11650
C2556       C  0.64093768  0.74540326  0.87427644     1.06530
O2557       O  0.65024192  0.79194125  0.97659579    -0.78260
O2558       O  0.63535521  0.78293249  0.89803061    -0.65840
Ni2559     Ni  0.58042025  0.72826303  0.51826101     1.34870
C2560       C  0.61811283  0.77324403  0.88258877     0.85260
O2561       O  0.58724516  0.76971163  0.48532966    -0.78800
O2562       O  0.57819259  0.74982215  0.53815809    -0.89070
C2563       C  0.64225740  0.80125298  0.97464795     0.84840
O2564       O  0.60670076  0.73910797  0.54055262    -0.67270
O2565       O  0.65138584  0.76191582  0.89083303    -0.86560
C2566       C  0.61983799  0.75727474  0.54245206     0.85670
C2567       C  0.57931007  0.76428927  0.52048015     1.07240
H2568       H  0.62816963  0.75158191  0.97576926     0.39040
O2569       O  0.62512167  0.75707620  0.95403302    -1.09220
O2570       O  0.60543826  0.75478737  0.88894831    -0.65870
Ni2571     Ni  0.60564546  0.73571402  0.92430046     1.26350
O2572       O  0.61661954  0.76860024  0.02421594    -0.66100
O2573       O  0.62277779  0.73328196  0.88439640    -0.78390
C2574       C  0.59213732  0.70378123  0.98174471     0.85050
O2575       O  0.60579006  0.71676036  0.95834066    -0.65570
Ni2576     Ni  0.64936859  0.77641699  0.93295474     1.27450
Ni2577     Ni  0.60715840  0.76525307  0.96865332     1.26060
H2578       H  0.57764334  0.73622706  0.95025813     0.39590
O2579       O  0.54891632  0.61096926  0.96546326    -0.80360
O2580       O  0.49655114  0.52577674  0.02255854    -0.65050
O2581       O  0.52003715  0.57866642  0.00538734    -1.11650
C2582       C  0.56796816  0.58741057  0.60398853     1.06530
O2583       O  0.50726637  0.52593634  0.58229981    -0.78260
O2584       O  0.51756580  0.55796745  0.62144457    -0.65840
Ni2585     Ni  0.52501681  0.58683771  0.94985881     1.34870
C2586       C  0.51348442  0.57022599  0.61240907     0.85260
O2587       O  0.48598910  0.54491923  0.98280185    -0.78800
O2588       O  0.50099517  0.56312725  0.92798108    -0.89070
C2589       C  0.50369337  0.51978346  0.54644151     0.84840
O2590       O  0.54037303  0.57660582  0.93739819    -0.67270
O2591       O  0.55601771  0.56966129  0.61212554    -0.86560
C2592       C  0.53472144  0.55910337  0.94296377     0.85670
C2593       C  0.48623832  0.54793348  0.94498853     1.07240
H2594       H  0.54113680  0.55929034  0.52648759     0.39040
O2595       O  0.53236423  0.56064567  0.54384891    -1.09220
O2596       O  0.52299186  0.58373588  0.58547986    -0.65870
Ni2597     Ni  0.54163487  0.58743689  0.54179482     1.26350
O2598       O  0.52064674  0.54785636  0.96719921    -0.66100
O2599       O  0.56417876  0.59655831  0.57852435    -0.78390
C2600       C  0.55504166  0.62143131  0.49758006     0.85050
O2601       O  0.55015708  0.61385768  0.53319323    -0.65570
Ni2602     Ni  0.53143842  0.54867080  0.59474870     1.27450
Ni2603     Ni  0.50848061  0.55215836  0.01361556     1.26060
H2604       H  0.51143808  0.58222079  0.01646867     0.39590
O2605       O  0.54348807  0.99662250  0.81786116    -0.80360
O2606       O  0.55985743  0.93089696  0.78193680    -0.65050
O2607       O  0.55316720  0.97273542  0.79275730    -1.11650
C2608       C  0.50855122  0.93834381  0.68650965     1.06530
O2609       O  0.56817048  0.94176230  0.71851364    -0.78260
O2610       O  0.56374335  0.96892942  0.68610004    -0.65840
Ni2611     Ni  0.54860025  0.97977605  0.84453843     1.34870
C2612       C  0.56091290  0.98220830  0.69496170     0.85260
O2613       O  0.57651480  0.96391152  0.83338638    -0.78800
O2614       O  0.55573490  0.96500961  0.87277345    -0.89070
C2615       C  0.56662171  0.93039664  0.74654717     0.84840
O2616       O  0.52284175  0.95725426  0.83920315    -0.67270
O2617       O  0.52341472  0.93870044  0.67160031    -0.86560
C2618       C  0.51870515  0.93990368  0.83638752     0.85670
C2619       C  0.57312798  0.97000337  0.86613307     1.07240
H2620       H  0.52645080  0.92917274  0.75535207     0.39040
O2621       O  0.53758709  0.94214108  0.74885283    -1.09220
O2622       O  0.54656749  0.97872656  0.71701176    -0.65870
Ni2623     Ni  0.53062782  0.95995874  0.75782577     1.26350
O2624       O  0.53208726  0.93629284  0.82744135    -0.66100
O2625       O  0.50905985  0.94588395  0.72119599    -0.78390
C2626       C  0.53473766  0.99453272  0.78499519     0.85050
O2627       O  0.52364986  0.97793299  0.76887263    -0.65570
Ni2628     Ni  0.54631709  0.94111235  0.69595371     1.27450
Ni2629     Ni  0.55622777  0.95182885  0.79112176     1.26060
H2630       H  0.56463343  0.98358996  0.77990412     0.39590
O2631       O  0.62601387  0.82550091  0.63188380    -0.80360
O2632       O  0.59482477  0.87310294  0.67342724    -0.65050
O2633       O  0.62994325  0.85696970  0.66729901    -1.11650
C2634       C  0.60355953  0.82268034  0.78363735     1.06530
O2635       O  0.59889208  0.87685238  0.74210585    -0.78260
O2636       O  0.63125406  0.87646385  0.76228665    -0.65840
Ni2637     Ni  0.63869314  0.85231286  0.61875034     1.34870
C2638       C  0.64277720  0.87077176  0.75825678     0.85260
O2639       O  0.62654891  0.88268457  0.61786242    -0.78800
O2640       O  0.65166077  0.87901303  0.60769269    -0.89070
C2641       C  0.59292511  0.87935161  0.70832133     0.84840
O2642       O  0.61719786  0.84863195  0.58880075    -0.67270
O2643       O  0.60629645  0.83899057  0.79477951    -0.86560
C2644       C  0.59979399  0.83643959  0.59996352     0.85670
C2645       C  0.64351875  0.88799311  0.60131455     1.07240
H2646       H  0.58693811  0.83765436  0.70789146     0.39040
O2647       O  0.60064526  0.84755475  0.71264032    -1.09220
O2648       O  0.63662927  0.85409958  0.74316271    -0.65870
Ni2649     Ni  0.61533552  0.83680769  0.70639487     1.26350
O2650       O  0.59358139  0.84112552  0.63130158    -0.66100
O2651       O  0.60084448  0.81763732  0.74675213    -0.78390
C2652       C  0.63184302  0.82130695  0.66271944     0.85050
O2653       O  0.62905693  0.82549498  0.69763927    -0.65570
Ni2654     Ni  0.60308238  0.85809919  0.76562934     1.27450
Ni2655     Ni  0.61235090  0.86463478  0.66580411     1.26060
H2656       H  0.64167433  0.86776221  0.67923827     0.39590
O2657       O  0.39036011  0.90446717  0.96939994    -0.80360
O2658       O  0.47959894  0.95206379  0.96646168    -0.65050
O2659       O  0.42585741  0.91485565  0.98804982    -1.11650
C2660       C  0.43551208  0.96843832  0.57426534     1.06530
O2661       O  0.47871253  0.95251482  0.53121525    -0.78260
O2662       O  0.45688320  0.95073887  0.59411597    -0.65840
Ni2663     Ni  0.41082090  0.90512440  0.93952187     1.34870
C2664       C  0.44937300  0.93279484  0.59226131     0.85260
O2665       O  0.45607416  0.91582516  0.94746139    -0.78800
O2666       O  0.43087683  0.90438701  0.90628136    -0.89070
C2667       C  0.48836636  0.95948913  0.49890260     0.84840
O2668       O  0.41829977  0.93011132  0.91758958    -0.67270
O2669       O  0.45324054  0.97729875  0.56103064    -0.86560
C2670       C  0.43552913  0.94509976  0.91313627     0.85670
C2671       C  0.44753431  0.90726965  0.91518549     1.07240
H2672       H  0.44597088  0.95864691  0.49006087     0.39040
O2673       O  0.44742281  0.95024662  0.50729219    -1.09220
O2674       O  0.43611556  0.92256290  0.56651833    -0.65870
Ni2675     Ni  0.42294119  0.93041774  0.53030267     1.26350
O2676       O  0.45005164  0.94527687  0.92682857    -0.66100
O2677       O  0.42307996  0.94952496  0.57010498    -0.78390
C2678       C  0.39131662  0.91989604  0.97911470     0.85050
O2679       O  0.40679680  0.93450806  0.49510911    -0.65570
Ni2680     Ni  0.46690284  0.96585754  0.54612058     1.27450
Ni2681     Ni  0.45248653  0.93352449  0.97581526     1.26060
H2682       H  0.42482934  0.90389116  0.00105608     0.39590
O2683       O  0.30105143  0.87959151  0.99649127    -0.80360
O2684       O  0.21438309  0.83507503  0.94707227    -0.65050
O2685       O  0.26645676  0.85256314  0.96049753    -1.11650
C2686       C  0.27575655  0.89562292  0.85714611     1.06530
O2687       O  0.21591257  0.85349090  0.89575409    -0.78260
O2688       O  0.23766302  0.84203204  0.86654939    -0.65840
Ni2689     Ni  0.27537043  0.85735993  0.01510090     1.34870
C2690       C  0.25197216  0.84019047  0.86501129     0.85260
O2691       O  0.23082511  0.82135538  0.48578024    -0.78800
O2692       O  0.25055677  0.83410822  0.53876378    -0.89070
C2693       C  0.20687453  0.84051166  0.92269637     0.84840
O2694       O  0.26766042  0.87526824  0.52714458    -0.67270
O2695       O  0.26459548  0.87866740  0.84428264    -0.86560
C2696       C  0.25086669  0.87237792  0.52211904     0.85670
C2697       C  0.23460813  0.82005711  0.52230706     1.07240
H2698       H  0.25087497  0.87787315  0.93970282     0.39040
O2699       O  0.25063913  0.86778349  0.92433403    -1.09220
O2700       O  0.26934738  0.85376640  0.87876855    -0.65870
Ni2701     Ni  0.27611422  0.87395576  0.92345338     1.26350
O2702       O  0.23787127  0.85773525  0.00145579    -0.66100
O2703       O  0.28496707  0.89729957  0.88934185    -0.78390
C2704       C  0.31052128  0.88602582  0.96235018     0.85050
O2705       O  0.30194561  0.88062319  0.92814598    -0.65570
Ni2706     Ni  0.24033119  0.86583715  0.87200453     1.27450
Ni2707     Ni  0.24027511  0.84423074  0.95511896     1.26060
H2708       H  0.26832122  0.84285602  0.94907133     0.39590
O2709       O  0.21284836  0.37828979  0.64136200    -0.80360
O2710       O  0.28692506  0.39941301  0.69494375    -0.65050
O2711       O  0.24660634  0.38367463  0.67473647    -1.11650
C2712       C  0.23779411  0.41585398  0.77850101     1.06530
O2713       O  0.29989752  0.42599097  0.73410541    -0.78260
O2714       O  0.26864328  0.39487628  0.76847263    -0.65840
Ni2715     Ni  0.22931155  0.36880665  0.63161987     1.34870
C2716       C  0.25117084  0.38006662  0.76658992     0.85260
O2717       O  0.27484820  0.38930862  0.61629635    -0.78800
O2718       O  0.24578948  0.35995402  0.62071777    -0.89070
C2719       C  0.30150530  0.41365293  0.71413353     0.84840
O2720       O  0.24198635  0.38709254  0.58850550    -0.67270
O2721       O  0.25371663  0.41774334  0.78968246    -0.86560
C2722       C  0.24732857  0.40437504  0.59505193     0.85670
C2723       C  0.26388775  0.37046944  0.61006480     1.07240
H2724       H  0.26798146  0.42912843  0.69647621     0.39040
O2725       O  0.26607511  0.41711311  0.70564043    -1.09220
O2726       O  0.23785545  0.38198372  0.75350207    -0.65870
Ni2727     Ni  0.23912419  0.39769262  0.70818371     1.26350
O2728       O  0.25913668  0.41381039  0.62395554    -0.66100
O2729       O  0.23276680  0.41231902  0.74181946    -0.78390
C2730       C  0.20328868  0.37404833  0.67453088     0.85050
O2731       O  0.21244919  0.37905730  0.70723162    -0.65570
Ni2732     Ni  0.27671304  0.42139858  0.75931697     1.27450
Ni2733     Ni  0.27183519  0.40507031  0.65962764     1.26060
H2734       H  0.24873775  0.37519102  0.69004042     0.39590
O2735       O  0.47375634  0.49672254  0.82389180    -0.80360
O2736       O  0.38918157  0.44373273  0.77826433    -0.65050
O2737       O  0.44502858  0.46907012  0.78013811    -1.11650
C2738       C  0.44786996  0.51481993  0.69503387     1.06530
O2739       O  0.39287375  0.44630146  0.71029999    -0.78260
O2740       O  0.42865306  0.46155451  0.68089277    -0.65840
Ni2741     Ni  0.45859970  0.46940344  0.82625499     1.34870
C2742       C  0.44687271  0.46977521  0.68572305     0.85260
O2743       O  0.41314806  0.43452458  0.82038906    -0.78800
O2744       O  0.44381785  0.44175010  0.82768251    -0.89070
C2745       C  0.38200971  0.44118131  0.74240636     0.84840
O2746       O  0.43978217  0.46896046  0.86139865    -0.67270
O2747       O  0.43535061  0.49910952  0.67549237    -0.86560
C2748       C  0.43222246  0.47856616  0.85566697     0.85670
C2749       C  0.42530624  0.43014007  0.83239578     1.07240
H2750       H  0.41596453  0.48300706  0.76142371     0.39040
O2751       O  0.42192183  0.47679116  0.74901079    -1.09220
O2752       O  0.45688793  0.48542529  0.70658857    -0.65870
Ni2753     Ni  0.44893404  0.49271177  0.75661713     1.26350
O2754       O  0.41983265  0.47328247  0.82729758    -0.66100
O2755       O  0.45060787  0.51399289  0.73231439    -0.78390
C2756       C  0.48263714  0.50319710  0.79011426     0.85050
O2757       O  0.47605147  0.51019896  0.76778168    -0.65570
Ni2758     Ni  0.41402275  0.47236379  0.69445288     1.27450
Ni2759     Ni  0.41716217  0.45573227  0.78313106     1.26060
H2760       H  0.44810873  0.46262645  0.76007407     0.39590
O2761       O  0.95393918  0.20639495  0.68460445    -0.80360
O2762       O  0.87116250  0.14843855  0.60764312    -0.65050
O2763       O  0.92382321  0.17596602  0.64340579    -1.11650
C2764       C  0.92864574  0.22086086  0.54169441     1.06530
O2765       O  0.88512085  0.15397666  0.54792875    -0.78260
O2766       O  0.91921530  0.18304028  0.51760595    -0.65840
Ni2767     Ni  0.92983712  0.18145308  0.69897288     1.34870
C2768       C  0.92492554  0.17293658  0.53163888     0.85260
O2769       O  0.88981475  0.14100061  0.66159404    -0.78800
O2770       O  0.90686101  0.15580212  0.71735929    -0.89070
C2771       C  0.86977910  0.14542712  0.56938939     0.84840
O2772       O  0.91605105  0.19400507  0.70532669    -0.67270
O2773       O  0.91008396  0.20863827  0.54024219    -0.86560
C2774       C  0.89881104  0.18834361  0.69433467     0.85670
C2775       C  0.89349413  0.14035821  0.69849185     1.07240
H2776       H  0.90231589  0.19325771  0.61026336     0.39040
O2777       O  0.90583622  0.18508479  0.59700914    -1.09220
O2778       O  0.93270634  0.17747667  0.56652537    -0.65870
Ni2779     Ni  0.93283213  0.19653437  0.60384618     1.26350
O2780       O  0.88881838  0.17367445  0.67067794    -0.66100
O2781       O  0.94005755  0.21720093  0.56126586    -0.78390
C2782       C  0.96566239  0.21036798  0.65408596     0.85050
O2783       O  0.95965795  0.20711638  0.61721078    -0.65570
Ni2784     Ni  0.89726762  0.18125990  0.54331191     1.27450
Ni2785     Ni  0.89716305  0.16253706  0.62889380     1.26060
H2786       H  0.92858807  0.16796895  0.63564757     0.39590
O2787       O  0.05608220  0.24524274  0.63895973    -0.80360
O2788       O  0.14651471  0.28825620  0.66096465    -0.65050
O2789       O  0.09159279  0.25489758  0.66344005    -1.11650
C2790       C  0.09619633  0.30244325  0.75991732     1.06530
O2791       O  0.14500549  0.29094892  0.72544317    -0.78260
O2792       O  0.11580261  0.28097267  0.78103978    -0.65840
Ni2793     Ni  0.07999215  0.25116366  0.61178245     1.34870
C2794       C  0.10733795  0.26316426  0.77250228     0.85260
O2795       O  0.12253030  0.25676822  0.62409247    -0.78800
O2796       O  0.10280518  0.25562897  0.57838230    -0.89070
C2797       C  0.15405198  0.29822592  0.69205005     0.84840
O2798       O  0.08855117  0.27786973  0.60873435    -0.67270
O2799       O  0.11483970  0.31109828  0.75730118    -0.86560
C2800       C  0.10636297  0.29226671  0.60784801     0.85670
C2801       C  0.11786302  0.25536441  0.58752475     1.07240
H2802       H  0.11360783  0.29725907  0.68334142     0.39040
O2803       O  0.11390864  0.28756397  0.69797720    -1.09220
O2804       O  0.09397662  0.25523194  0.74513706    -0.65870
Ni2805     Ni  0.08723943  0.26872913  0.70590627     1.26350
O2806       O  0.12006839  0.29005941  0.61856539    -0.66100
O2807       O  0.08398166  0.28470237  0.74728965    -0.78390
C2808       C  0.04885024  0.24301967  0.67506542     0.85050
O2809       O  0.05933757  0.24908680  0.70738019    -0.65570
Ni2810     Ni  0.13025955  0.30114438  0.74240688     1.27450
Ni2811     Ni  0.11896258  0.27230020  0.66082286     1.26060
H2812       H  0.08826378  0.24242778  0.67334044     0.39590
O2813       O  0.21874225  0.33606366  0.95092587    -0.80360
O2814       O  0.22462479  0.26299540  0.94464169    -0.65050
O2815       O  0.22264451  0.30742537  0.93655274    -1.11650
C2816       C  0.16957086  0.26586376  0.84855496     1.06530
O2817       O  0.22808233  0.26539990  0.87631925    -0.78260
O2818       O  0.22318904  0.28997532  0.83055185    -0.65840
Ni2819     Ni  0.22226997  0.32008401  0.98447781     1.34870
C2820       C  0.22234975  0.30485828  0.83338341     0.85260
O2821       O  0.24517413  0.29989127  0.98405404    -0.78800
O2822       O  0.22683142  0.30558201  0.02022902    -0.89070
C2823       C  0.23030476  0.25953634  0.91058534     0.84840
O2824       O  0.19526775  0.29969588  0.98755757    -0.67270
O2825       O  0.18171554  0.26181145  0.83433548    -0.86560
C2826       C  0.18878331  0.28171483  0.99226207     0.85670
C2827       C  0.24337629  0.30865803  0.01437886     1.07240
H2828       H  0.19084274  0.26160413  0.91919480     0.39040
O2829       O  0.20220489  0.27302026  0.90693638    -1.09220
O2830       O  0.21153741  0.30604487  0.85926120    -0.65870
Ni2831     Ni  0.19812876  0.29303713  0.90800438     1.26350
O2832       O  0.20006383  0.27515711  0.98557476    -0.66100
O2833       O  0.17386805  0.27742671  0.87882491    -0.78390
C2834       C  0.20411631  0.32998247  0.92858929     0.85050
O2835       O  0.19434711  0.31326241  0.91215284    -0.65570
Ni2836     Ni  0.20559198  0.26465815  0.85589024     1.27450
Ni2837     Ni  0.22305302  0.28537855  0.94512742     1.26060
H2838       H  0.23351855  0.31641631  0.91893633     0.39590
O2839       O  0.29583233  0.16186278  0.78542314    -0.80360
O2840       O  0.26805551  0.21113567  0.84937843    -0.65050
O2841       O  0.30086744  0.19258040  0.82899463    -1.11650
C2842       C  0.26535083  0.14879518  0.93569903     1.06530
O2843       O  0.27230141  0.21152130  0.91714651    -0.78260
O2844       O  0.29885070  0.20282782  0.93988534    -0.65840
Ni2845     Ni  0.30703277  0.18838124  0.77482849     1.34870
C2846       C  0.31033625  0.19750649  0.93046034     0.85260
O2847       O  0.29925092  0.22274608  0.79332697    -0.78800
O2848       O  0.31854831  0.21457220  0.76249550    -0.89070
C2849       C  0.26625769  0.21580483  0.88588667     0.84840
O2850       O  0.28370745  0.18258788  0.75015775    -0.67270
O2851       O  0.26745892  0.16388583  0.95302830    -0.86560
C2852       C  0.26723706  0.17393244  0.76816229     0.85670
C2853       C  0.31387034  0.22652551  0.76957497     1.07240
H2854       H  0.25778697  0.17290072  0.86963749     0.39040
O2855       O  0.27139167  0.18189453  0.87672587    -1.09220
O2856       O  0.30496090  0.18363741  0.90534867    -0.65870
Ni2857     Ni  0.28516021  0.17038283  0.86409842     1.26350
O2858       O  0.26460237  0.18137207  0.79992021    -0.66100
O2859       O  0.26937345  0.14890090  0.89836793    -0.78390
C2860       C  0.30345140  0.15834825  0.81389541     0.85050
O2861       O  0.29884478  0.15909974  0.85009222    -0.65570
Ni2862     Ni  0.27079283  0.18802697  0.93245436     1.27450
Ni2863     Ni  0.28455992  0.20200431  0.83584871     1.26060
H2864       H  0.31323282  0.20182924  0.84178636     0.39590
O2865       O  0.88068255  0.71887026  0.81997983    -0.80360
O2866       O  0.95273471  0.74115863  0.87477951    -0.65050
O2867       O  0.91291966  0.72306586  0.85093583    -1.11650
C2868       C  0.89770113  0.74895243  0.95746217     1.06530
O2869       O  0.96340909  0.76775972  0.91400622    -0.78260
O2870       O  0.93500275  0.73681009  0.95216518    -0.65840
Ni2871     Ni  0.89630333  0.70959227  0.80571789     1.34870
C2872       C  0.91876010  0.72077997  0.94852939     0.85260
O2873       O  0.94154518  0.73059804  0.79288956    -0.78800
O2874       O  0.91243302  0.70110536  0.79210282    -0.89070
C2875       C  0.96589679  0.75526296  0.89699338     0.84840
O2876       O  0.90867434  0.72914611  0.76490253    -0.67270
O2877       O  0.91472812  0.75421476  0.97035976    -0.86560
C2878       C  0.91309137  0.74589184  0.77428394     0.85670
C2879       C  0.93047947  0.71192285  0.78240839     1.07240
H2880       H  0.92980356  0.76708954  0.87587717     0.39040
O2881       O  0.92935911  0.75577643  0.88497760    -1.09220
O2882       O  0.90467179  0.71950828  0.92973140    -0.65870
Ni2883     Ni  0.90328207  0.73453291  0.88616299     1.26350
O2884       O  0.92449084  0.75457762  0.80383512    -0.66100
O2885       O  0.89436525  0.74660398  0.92012108    -0.78390
C2886       C  0.87018857  0.70922860  0.84959089     0.85050
O2887       O  0.87725558  0.71373294  0.88406690    -0.65570
Ni2888     Ni  0.93945480  0.76140494  0.93959064     1.27450
Ni2889     Ni  0.93734229  0.74570684  0.83829202     1.26060
H2890       H  0.91559063  0.71476790  0.86537584     0.39590
O2891       O  0.13509036  0.79739571  0.93142663    -0.80360
O2892       O  0.05461154  0.78673103  0.96324793    -0.65050
O2893       O  0.10231197  0.79253932  0.93852224    -1.11650
C2894       C  0.11471871  0.84499613  0.85931867     1.06530
O2895       O  0.05437486  0.78241597  0.89578675    -0.78260
O2896       O  0.08364251  0.79026691  0.84362690    -0.65840
Ni2897     Ni  0.11814160  0.79155017  0.97685433     1.34870
C2898       C  0.10151263  0.79606439  0.83965811     0.85260
O2899       O  0.07218875  0.76772120  0.99339197    -0.78800
O2900       O  0.10084197  0.78376671  0.52234283    -0.89070
C2901       C  0.04568010  0.78222703  0.92882044     0.84840
O2902       O  0.12561854  0.81745323  0.98769568    -0.67270
O2903       O  0.09762083  0.83101921  0.84607513    -0.86560
C2904       C  0.11446493  0.82196890  0.00485015     0.85670
C2905       C  0.08408378  0.76831594  0.51936055     1.07240
H2906       H  0.08735276  0.82168433  0.93402693     0.39040
O2907       O  0.08783533  0.81151701  0.92039464    -1.09220
O2908       O  0.11400504  0.80973501  0.86165680    -0.65870
Ni2909     Ni  0.11319514  0.81838342  0.91587896     1.26350
O2910       O  0.09525030  0.81118311  0.99996756    -0.66100
O2911       O  0.12181854  0.84295669  0.89179283    -0.78390
C2912       C  0.14125891  0.81152315  0.90717226     0.85050
O2913       O  0.13846849  0.82479246  0.91512350    -0.65570
Ni2914     Ni  0.07546304  0.80600757  0.87029830     1.27450
Ni2915     Ni  0.07964624  0.79013012  0.95689405     1.26060
H2916       H  0.09886959  0.78287910  0.91757076     0.39590
O2917       O  0.25210756  0.04854307  0.67041687    -0.80360
O2918       O  0.29686736  0.13364733  0.62149023    -0.65050
O2919       O  0.25976594  0.07992168  0.63226348    -1.11650
C2920       C  0.30686651  0.07946168  0.53923923     1.06530
O2921       O  0.29808317  0.13029748  0.55589870    -0.78260
O2922       O  0.28863350  0.09875209  0.51350380    -0.65840
Ni2923     Ni  0.25401960  0.07155958  0.68749328     1.34870
C2924       C  0.27102428  0.09282650  0.52118991     0.85260
O2925       O  0.26260350  0.11391948  0.65547361    -0.78800
O2926       O  0.25394904  0.09421569  0.70814658    -0.89070
C2927       C  0.29928622  0.14044548  0.58634528     0.84840
O2928       O  0.28085009  0.08212861  0.70375086    -0.67270
O2929       O  0.31739633  0.09750405  0.54839491    -0.86560
C2930       C  0.29526516  0.09957779  0.69846563     0.85670
C2931       C  0.25528526  0.10883145  0.69087768     1.07240
H2932       H  0.30298993  0.09907961  0.61885701     0.39040
O2933       O  0.29374979  0.09900349  0.60093437    -1.09220
O2934       O  0.26229967  0.08199156  0.55173415    -0.65870
Ni2935     Ni  0.27254916  0.07269039  0.59122185     1.26350
O2936       O  0.29334021  0.11086195  0.67640733    -0.66100
O2937       O  0.28822956  0.06840716  0.54940640    -0.78390
C2938       C  0.26575510  0.04717448  0.65557110     0.85050
O2939       O  0.27936686  0.06049074  0.63211005    -0.65570
Ni2940     Ni  0.30789574  0.11379588  0.55365484     1.27450
Ni2941     Ni  0.27853819  0.10692658  0.62837149     1.26060
H2942       H  0.24750960  0.07682527  0.62122992     0.39590
O2943       O  0.22308885  0.95743934  0.64562293    -0.80360
O2944       O  0.18220061  0.87089305  0.68471613    -0.65050
O2945       O  0.19727120  0.92170590  0.67573635    -1.11650
C2946       C  0.23568097  0.92801829  0.78786769     1.06530
O2947       O  0.20241427  0.87092147  0.72897263    -0.78260
O2948       O  0.18386692  0.88793807  0.76201562    -0.65840
Ni2949     Ni  0.20285141  0.93261896  0.62251603     1.34870
C2950       C  0.18055908  0.90126207  0.76625236     0.85260
O2951       O  0.16835074  0.88626361  0.64303607    -0.78800
O2952       O  0.18215074  0.90834976  0.59390801    -0.89070
C2953       C  0.19175113  0.86451092  0.69795028     0.84840
O2954       O  0.22250892  0.92761479  0.60823305    -0.67270
O2955       O  0.21824110  0.91443961  0.79573270    -0.86560
C2956       C  0.21997706  0.91104053  0.61013355     0.85670
C2957       C  0.16879164  0.89108348  0.60635978     1.07240
H2958       H  0.22376322  0.90747523  0.69688957     0.39040
O2959       O  0.21293997  0.90627690  0.71210212    -1.09220
O2960       O  0.19400438  0.91963977  0.75735186    -0.65870
Ni2961     Ni  0.21716407  0.93073240  0.71694230     1.26350
O2962       O  0.20660387  0.89745500  0.63272361    -0.66100
O2963       O  0.23831068  0.93870172  0.75719399    -0.78390
C2964       C  0.22911934  0.96599123  0.68025312     0.85050
O2965       O  0.22307678  0.95665476  0.71427846    -0.65570
Ni2966     Ni  0.20931728  0.89269852  0.76129156     1.27450
Ni2967     Ni  0.19026346  0.89618744  0.67825655     1.26060
H2968       H  0.18643837  0.92213439  0.68647030     0.39590
O2969       O  0.78335183  0.72815289  0.66903403    -0.80360
O2970       O  0.84015618  0.70435949  0.63728266    -0.65050
O2971       O  0.81418689  0.72947355  0.63779537    -1.11650
C2972       C  0.76988743  0.67456861  0.54903637     1.06530
O2973       O  0.83455180  0.70153773  0.57324648    -0.78260
O2974       O  0.80846238  0.70196740  0.52657310    -0.65840
Ni2975     Ni  0.80749728  0.73242440  0.69128511     1.34870
C2976       C  0.82015377  0.71997719  0.53157537     0.85260
O2977       O  0.84910289  0.73827059  0.66081953    -0.78800
O2978       O  0.83335377  0.73917881  0.71522125    -0.89070
C2979       C  0.83877351  0.69624800  0.60453127     0.84840
O2980       O  0.79304502  0.70474155  0.70574236    -0.67270
O2981       O  0.78045245  0.66852059  0.55932705    -0.86560
C2982       C  0.80132575  0.69552243  0.70523742     0.85670
C2983       C  0.84948315  0.74303614  0.69728132     1.07240
H2984       H  0.79479983  0.68694237  0.62937310     0.39040
O2985       O  0.80408264  0.69653306  0.61041408    -1.09220
O2986       O  0.81528798  0.72765363  0.55895678    -0.65870
Ni2987     Ni  0.79422643  0.71163459  0.60015289     1.26350
O2988       O  0.81793107  0.70340629  0.68789643    -0.66100
O2989       O  0.77422430  0.69195972  0.55944145    -0.78390
C2990       C  0.77996824  0.73243488  0.63382073     0.85050
O2991       O  0.78454590  0.72788431  0.59977273    -0.65570
Ni2992     Ni  0.80769707  0.68470027  0.56508943     1.27450
Ni2993     Ni  0.82731481  0.71713134  0.63704134     1.26060
H2994       H  0.82247331  0.74231575  0.62599977     0.39590
O2995       O  0.74002207  0.78168883  0.62173429    -0.80360
O2996       O  0.71107398  0.83129407  0.69386682    -0.65050
O2997       O  0.74001884  0.81071114  0.66187884    -1.11650
C2998       C  0.70985860  0.77446651  0.77884113     1.06530
O2999       O  0.69310588  0.81343519  0.74717097    -0.78260
O3000       O  0.73202941  0.82740446  0.75624578    -0.65840
Ni3001     Ni  0.73995769  0.80437134  0.60615996     1.34870
C3002       C  0.74795981  0.82838597  0.75038728     0.85260
O3003       O  0.73968659  0.84226573  0.64151101    -0.78800
O3004       O  0.74185158  0.82799127  0.58587454    -0.89070
C3005       C  0.69554014  0.82282183  0.71526527     0.84840
O3006       O  0.71168906  0.78831123  0.60011094    -0.67270
O3007       O  0.71986278  0.79230308  0.78708678    -0.86560
C3008       C  0.69980104  0.79293537  0.61107518     0.85670
C3009       C  0.74349655  0.84280212  0.60377210     1.07240
H3010       H  0.69792071  0.78807663  0.70017387     0.39040
O3011       O  0.71049009  0.79806290  0.71113240    -1.09220
O3012       O  0.74816469  0.81327174  0.73902106    -0.65870
Ni3013     Ni  0.72853534  0.79103084  0.70312836     1.26350
O3014       O  0.70478671  0.80650790  0.63686590    -0.66100
O3015       O  0.71461389  0.77015420  0.74518656    -0.78390
C3016       C  0.74669770  0.77800589  0.65290284     0.85050
O3017       O  0.74615450  0.78365208  0.68911505    -0.65570
Ni3018     Ni  0.70765729  0.80391858  0.76571906     1.27450
Ni3019     Ni  0.72508805  0.82060069  0.67666125     1.26060
H3020       H  0.75361972  0.82043011  0.66796477     0.39590
O3021       O  0.84471781  0.12121480  0.80616038    -0.80360
O3022       O  0.79675006  0.04197462  0.86796731    -0.65050
O3023       O  0.81638665  0.09479947  0.85339939    -1.11650
C3024       C  0.86476551  0.10890108  0.94729090     1.06530
O3025       O  0.80062359  0.04585792  0.93613430    -0.78260
O3026       O  0.80910376  0.08155928  0.95767045    -0.65840
Ni3027     Ni  0.81782622  0.10534755  0.80069832     1.34870
C3028       C  0.81463998  0.09886907  0.94948499     0.85260
O3029       O  0.78324932  0.06086489  0.82017470    -0.78800
O3030       O  0.79082957  0.08967781  0.79511523    -0.89070
C3031       C  0.79433923  0.03514507  0.90404308     0.84840
O3032       O  0.81974316  0.08679811  0.77071952    -0.67270
O3033       O  0.84944835  0.09520982  0.96674050    -0.86560
C3034       C  0.82964102  0.08049609  0.78310602     0.85670
C3035       C  0.77877079  0.07169154  0.80092138     1.07240
H3036       H  0.83663274  0.07297585  0.88206703     0.39040
O3037       O  0.82852804  0.07722217  0.89264306    -1.09220
O3038       O  0.83008575  0.10964665  0.92822686    -0.65870
Ni3039     Ni  0.84057922  0.10383875  0.88156129     1.26350
O3040       O  0.82439723  0.07033755  0.81535994    -0.66100
O3041       O  0.86371689  0.11154130  0.90988183    -0.78390
C3042       C  0.84846227  0.13334741  0.83370920     0.85050
O3043       O  0.85179829  0.13019160  0.86870996    -0.65570
Ni3044     Ni  0.82451624  0.07091372  0.94882197     1.27450
Ni3045     Ni  0.80613842  0.06837690  0.85744270     1.26060
H3046       H  0.80790579  0.09623988  0.87126654     0.39590
O3047       O  0.71859179  0.86183313  0.95453993    -0.80360
O3048       O  0.75211058  0.94135269  0.94166512    -0.65050
O3049       O  0.71493132  0.88792268  0.92618369    -1.11650
C3050       C  0.75947218  0.88887918  0.83158795     1.06530
O3051       O  0.76005400  0.94666127  0.87443829    -0.78260
O3052       O  0.73405856  0.91628506  0.82928624    -0.65840
Ni3053     Ni  0.70322385  0.87152229  0.97093769     1.34870
C3054       C  0.71861021  0.89917764  0.82943970     0.85260
O3055       O  0.71464425  0.91512653  0.97679568    -0.78800
O3056       O  0.68956569  0.88339998  0.98472853    -0.89070
C3057       C  0.75901671  0.95239802  0.91033261     0.84840
O3058       O  0.72070377  0.88641319  0.01289832    -0.67270
O3059       O  0.76184082  0.90491294  0.81975013    -0.86560
C3060       C  0.73895337  0.89658466  0.00813313     0.85670
C3061       C  0.69682734  0.90161334  0.98926763     1.07240
H3062       H  0.76116054  0.91317874  0.91264018     0.39040
O3063       O  0.74977383  0.91091823  0.89881064    -1.09220
O3064       O  0.71825322  0.88496094  0.84560994    -0.65870
Ni3065     Ni  0.73189700  0.88383421  0.89276168     1.26350
O3066       O  0.74677984  0.90889273  0.97913496    -0.66100
O3067       O  0.74926101  0.88026961  0.86269311    -0.78390
C3068       C  0.70936676  0.85008124  0.92594915     0.85050
O3069       O  0.71434562  0.85649855  0.89046335    -0.65570
Ni3070     Ni  0.75962123  0.92506004  0.84924955     1.27450
Ni3071     Ni  0.73324493  0.91407630  0.93725421     1.26060
H3072       H  0.70448104  0.88642957  0.91016771     0.39590
O3073       O  0.45338086  0.06156046  0.82906815    -0.80360
O3074       O  0.51267154  0.04034839  0.77301700    -0.65050
O3075       O  0.48518099  0.06316076  0.79759611    -1.11650
C3076       C  0.45028889  0.02342989  0.68118670     1.06530
O3077       O  0.51644948  0.05098887  0.71049757    -0.78260
O3078       O  0.49165152  0.05647396  0.67028861    -0.65840
Ni3079     Ni  0.47396034  0.05897225  0.85053736     1.34870
C3080       C  0.50029604  0.07255366  0.68870539     0.85260
O3081       O  0.51671944  0.06496598  0.82845288    -0.78800
O3082       O  0.49476822  0.05768423  0.87775821    -0.89070
C3083       C  0.52231461  0.04598480  0.73992450     0.84840
O3084       O  0.45795354  0.03108407  0.84486614    -0.67270
O3085       O  0.46298983  0.01912697  0.68130926    -0.86560
C3086       C  0.46517964  0.02097172  0.83928793     0.85670
C3087       C  0.51181444  0.06212847  0.86542285     1.07240
H3088       H  0.47001900  0.02446287  0.75568265     0.39040
O3089       O  0.48001620  0.03741821  0.74660112    -1.09220
O3090       O  0.49205731  0.07402273  0.72076665    -0.65870
Ni3091     Ni  0.46892353  0.05196339  0.75033542     1.26350
O3092       O  0.48201929  0.02827768  0.82218723    -0.66100
O3093       O  0.45225261  0.03819053  0.70135545    -0.78390
C3094       C  0.45091374  0.06815154  0.79601199     0.85050
O3095       O  0.45748261  0.06677470  0.76090458    -0.65570
Ni3096     Ni  0.48946418  0.03489170  0.69586952     1.27450
Ni3097     Ni  0.49848715  0.05101888  0.78738187     1.26060
H3098       H  0.49427641  0.07706764  0.79425526     0.39590
O3099       O  0.41073557  0.11792835  0.78726016    -0.80360
O3100       O  0.38552112  0.17282886  0.84095382    -0.65050
O3101       O  0.40957353  0.14596733  0.82806839    -1.11650
C3102       C  0.35920340  0.09922160  0.92338268     1.06530
O3103       O  0.37248728  0.16228746  0.90030476    -0.78260
O3104       O  0.38726981  0.14716369  0.94274067    -0.65840
Ni3105     Ni  0.41267226  0.14177703  0.77212368     1.34870
C3106       C  0.40438292  0.15103479  0.93518957     0.85260
O3107       O  0.41800739  0.18140949  0.80902737    -0.78800
O3108       O  0.41663905  0.16665242  0.75196856    -0.89070
C3109       C  0.37142313  0.16694173  0.86489215     0.84840
O3110       O  0.38483730  0.12713469  0.76139870    -0.67270
O3111       O  0.35462295  0.11135680  0.92742859    -0.86560
C3112       C  0.37467140  0.13436610  0.76586471     0.85670
C3113       C  0.42034915  0.18207786  0.77110584     1.07240
H3114       H  0.36640276  0.12722820  0.84421784     0.39040
O3115       O  0.37682158  0.13530021  0.86289487    -1.09220
O3116       O  0.40824352  0.14223776  0.90784026    -0.65870
Ni3117     Ni  0.39216362  0.12444043  0.86355847     1.26350
O3118       O  0.38122689  0.14965649  0.78717229    -0.66100
O3119       O  0.37402274  0.10246720  0.90128244    -0.78390
C3120       C  0.41362240  0.11163584  0.82025470     0.85050
O3121       O  0.40859063  0.11446838  0.85586666    -0.65570
Ni3122     Ni  0.36436627  0.13680954  0.91169168     1.27450
Ni3123     Ni  0.39733501  0.15914329  0.83542446     1.26060
H3124       H  0.42256830  0.15360207  0.83948248     0.39590
O3125       O  0.51343158  0.45679183  0.45022801    -0.80360
O3126       O  0.46688947  0.37574436  0.51307181    -0.65050
O3127       O  0.48403156  0.42835821  0.49852927    -1.11650
C3128       C  0.52846450  0.44368848  0.60055013     1.06530
O3129       O  0.46690950  0.37924289  0.58148629    -0.78260
O3130       O  0.47420176  0.41463210  0.60537555    -0.65840
Ni3131     Ni  0.48600591  0.43891328  0.94628600     1.34870
C3132       C  0.48012646  0.43224432  0.59905961     0.85260
O3133       O  0.45369793  0.39324538  0.96111908    -0.78800
O3134       O  0.45869431  0.42176719  0.94228136    -0.89070
C3135       C  0.46317508  0.36879514  0.54933262     0.84840
O3136       O  0.48963362  0.42113536  0.91691471    -0.67270
O3137       O  0.51350256  0.42890970  0.61832847    -0.86560
C3138       C  0.50029442  0.41585178  0.93033919     0.85670
C3139       C  0.44815358  0.40341380  0.94342923     1.07240
H3140       H  0.50465696  0.40787369  0.53301069     0.39040
O3141       O  0.49570110  0.41141005  0.54169316    -1.09220
O3142       O  0.49430706  0.44297784  0.57420583    -0.65870
Ni3143     Ni  0.50711603  0.43769334  0.53000212     1.26350
O3144       O  0.49527302  0.40590488  0.96304839    -0.66100
O3145       O  0.52919428  0.44588272  0.56236892    -0.78390
C3146       C  0.51873202  0.46882729  0.47901656     0.85050
O3147       O  0.51871735  0.46362486  0.51478952    -0.65570
Ni3148     Ni  0.48998454  0.40435898  0.59739314     1.27450
Ni3149     Ni  0.47497036  0.40190896  0.50243627     1.26060
H3150       H  0.47481677  0.42977852  0.51404340     0.39590
O3151       O  0.37152138  0.19088432  0.64686482    -0.80360
O3152       O  0.42291128  0.27824226  0.61241658    -0.65050
O3153       O  0.38154905  0.22433989  0.61364386    -1.11650
C3154       C  0.42059222  0.21473558  0.52321517     1.06530
O3155       O  0.43005973  0.27836572  0.54563356    -0.78260
O3156       O  0.40039293  0.24613521  0.51083199    -0.65840
Ni3157     Ni  0.36847301  0.21081993  0.66314411     1.34870
C3158       C  0.38507982  0.22904436  0.51283817     0.85260
O3159       O  0.38677341  0.25807988  0.65127184    -0.78800
O3160       O  0.36405025  0.22987684  0.68153162    -0.89070
C3161       C  0.43034850  0.28703211  0.57845849     0.84840
O3162       O  0.39128782  0.22068623  0.69398926    -0.67270
O3163       O  0.42361031  0.23013047  0.50613249    -0.86560
C3164       C  0.40928913  0.23334399  0.68666878     0.85670
C3165       C  0.37136542  0.24765157  0.67418940     1.07240
H3166       H  0.42786076  0.24615723  0.59661825     0.39040
O3167       O  0.41642943  0.24349659  0.58243393    -1.09220
O3168       O  0.38419989  0.21584604  0.53435848    -0.65870
Ni3169     Ni  0.39698168  0.21653112  0.58414403     1.26350
O3170       O  0.41532251  0.24736626  0.66130056    -0.66100
O3171       O  0.41299201  0.21007435  0.55810814    -0.78390
C3172       C  0.36487451  0.18413087  0.61229570     0.85050
O3173       O  0.37752045  0.18928342  0.58492824    -0.65570
Ni3174     Ni  0.42574143  0.25377164  0.52890820     1.27450
Ni3175     Ni  0.40215743  0.25114311  0.61634556     1.26060
H3176       H  0.37157171  0.22315354  0.59620966     0.39590
O3177       O  0.62415397  0.54364759  0.83103080    -0.80360
O3178       O  0.53881496  0.48643822  0.77357164    -0.65050
O3179       O  0.59308318  0.51370954  0.79216059    -1.11650
C3180       C  0.59195273  0.56135909  0.70938232     1.06530
O3181       O  0.54587115  0.49419330  0.70971152    -0.78260
O3182       O  0.58002687  0.52476891  0.67726314    -0.65840
Ni3183     Ni  0.60146781  0.51817944  0.84640288     1.34870
C3184       C  0.58620747  0.51407537  0.68294634     0.85260
O3185       O  0.56089165  0.47767738  0.81129388    -0.78800
O3186       O  0.57937262  0.49208443  0.86557129    -0.89070
C3187       C  0.53309722  0.48544070  0.73759666     0.84840
O3188       O  0.58823461  0.53052698  0.86054968    -0.67270
O3189       O  0.57332219  0.54943015  0.71185939    -0.86560
C3190       C  0.57014814  0.52368507  0.85672386     0.85670
C3191       C  0.56543198  0.47673587  0.84735527     1.07240
H3192       H  0.57010600  0.53148153  0.77811072     0.39040
O3193       O  0.57206251  0.52358471  0.75956372    -1.09220
O3194       O  0.59700549  0.51777540  0.71350725    -0.65870
Ni3195     Ni  0.59942554  0.53529589  0.75772614     1.26350
O3196       O  0.55927766  0.50878120  0.83451383    -0.66100
O3197       O  0.60417458  0.55700742  0.72139893    -0.78390
C3198       C  0.63450602  0.54909214  0.79811418     0.85050
O3199       O  0.62696550  0.54625668  0.76276782    -0.65570
Ni3200     Ni  0.55956699  0.52194518  0.71073392     1.27450
Ni3201     Ni  0.56578265  0.50008244  0.78509620     1.26060
H3202       H  0.59782662  0.50638555  0.77978425     0.39590
O3203       O  0.71992905  0.56905018  0.79289310    -0.80360
O3204       O  0.80626453  0.61922810  0.81168927    -0.65050
O3205       O  0.75375376  0.57897711  0.82531436    -1.11650
C3206       C  0.75263024  0.62517008  0.92043400     1.06530
O3207       O  0.80591438  0.62679804  0.87337098    -0.78260
O3208       O  0.78056955  0.61551209  0.93281148    -0.65840
Ni3209     Ni  0.74364917  0.57339653  0.77054635     1.34870
C3210       C  0.77889219  0.59953631  0.92720436     0.85260
O3211       O  0.78683300  0.58306768  0.79539410    -0.78800
O3212       O  0.76732622  0.57570796  0.74356654    -0.89070
C3213       C  0.81313513  0.63150181  0.83876120     0.84840
O3214       O  0.75104307  0.59965431  0.75587979    -0.67270
O3215       O  0.76857294  0.63742520  0.90206491    -0.86560
C3216       C  0.76889017  0.61376889  0.75435827     0.85670
C3217       C  0.78273082  0.57760665  0.75905875     1.07240
H3218       H  0.76683001  0.61976170  0.82914684     0.39040
O3219       O  0.77097370  0.61388282  0.84773805    -1.09220
O3220       O  0.76534912  0.58722189  0.90349406    -0.65870
Ni3221     Ni  0.74815697  0.59154306  0.87033369     1.26350
O3222       O  0.78107585  0.61079457  0.76871510    -0.66100
O3223       O  0.74419722  0.60644626  0.91491789    -0.78390
C3224       C  0.71658966  0.57940345  0.81613367     0.85050
O3225       O  0.73002856  0.59370830  0.83715515    -0.65570
Ni3226     Ni  0.78780381  0.63261477  0.88743467     1.27450
Ni3227     Ni  0.78012016  0.59912887  0.81994858     1.26060
H3228       H  0.75264118  0.56750751  0.83572385     0.39590
O3229       O  0.83665100  0.62202070  0.62716720    -0.80360
O3230       O  0.89768713  0.60596750  0.61159959    -0.65050
O3231       O  0.87196934  0.63207189  0.60201733    -1.11650
C3232       C  0.84305959  0.59633818  0.48756032     1.06530
O3233       O  0.90525713  0.61275759  0.54547661    -0.78260
O3234       O  0.89643171  0.63541198  0.51257650    -0.65840
Ni3235     Ni  0.86257434  0.63938858  0.64646219     1.34870
C3236       C  0.88759834  0.64393841  0.51283357     0.85260
O3237       O  0.90109215  0.63804171  0.65626320    -0.78800
O3238       O  0.88883788  0.65662136  0.66492651    -0.89070
C3239       C  0.90448475  0.60385435  0.57768225     0.84840
O3240       O  0.85895194  0.62009193  0.68316134    -0.67270
O3241       O  0.86125715  0.60325996  0.47847542    -0.86560
C3242       C  0.85302724  0.60298077  0.67236923     0.85670
C3243       C  0.90244708  0.65371486  0.66966525     1.07240
H3244       H  0.86231554  0.59053720  0.57126190     0.39040
O3245       O  0.87006543  0.60423653  0.56443119    -1.09220
O3246       O  0.86934810  0.63446856  0.52263689    -0.65870
Ni3247     Ni  0.85404365  0.61329317  0.56246090     1.26350
O3248       O  0.86252720  0.60001855  0.64498197    -0.66100
O3249       O  0.83761715  0.59432326  0.52408118    -0.78390
C3250       C  0.83288450  0.62626684  0.59334179     0.85050
O3251       O  0.83706784  0.62128124  0.56115319    -0.65570
Ni3252     Ni  0.88332848  0.60779248  0.51382306     1.27450
Ni3253     Ni  0.88502433  0.61983676  0.61065019     1.26060
H3254       H  0.88186691  0.64389872  0.58902852     0.39590
O3255       O  0.99978837  0.54451391  0.50244337    -0.80360
O3256       O  0.94019848  0.55369469  0.51552210    -0.65050
O3257       O  0.96585209  0.54163179  0.51157041    -1.11650
C3258       C  0.93664666  0.48887380  0.59681223     1.06530
O3259       O  0.92858610  0.54321147  0.58028996    -0.78260
O3260       O  0.95877348  0.54307199  0.61028401    -0.65840
Ni3261     Ni  0.98670512  0.55293347  0.97495166     1.34870
C3262       C  0.97299906  0.54128369  0.60411382     0.85260
O3263       O  0.94864071  0.54458055  0.93307806    -0.78800
O3264       O  0.97652698  0.56610979  0.95373890    -0.89070
C3265       C  0.93305248  0.55467416  0.55008767     0.84840
O3266       O  0.97185266  0.52761746  0.94411223    -0.67270
O3267       O  0.93358026  0.50104172  0.61487210    -0.86560
C3268       C  0.95412704  0.51192946  0.94744248     0.85670
C3269       C  0.96653739  0.55785695  0.92395478     1.07240
H3270       H  0.92192201  0.50501454  0.53538945     0.39040
O3271       O  0.93367137  0.51768140  0.54091778    -1.09220
O3272       O  0.97081331  0.52809091  0.58114099    -0.65870
Ni3273     Ni  0.95549357  0.51628361  0.53372642     1.26350
O3274       O  0.94051593  0.51185726  0.96665562    -0.66100
O3275       O  0.94307246  0.49180932  0.56012344    -0.78390
C3276       C  0.99450076  0.52873856  0.51848128     0.85050
O3277       O  0.97680711  0.51441679  0.52061887    -0.65570
Ni3278     Ni  0.93162867  0.52288601  0.59640710     1.27450
Ni3279     Ni  0.94067520  0.53269668  0.49015231     1.26060
H3280       H  0.96870689  0.55106374  0.53258266     0.39590
O3281       O  0.88869725  0.28600343  0.80487202    -0.80360
O3282       O  0.83023886  0.19959537  0.84396758    -0.65050
O3283       O  0.85867461  0.25391035  0.83969364    -1.11650
C3284       C  0.90480113  0.24874895  0.91905832     1.06530
O3285       O  0.84226255  0.19935029  0.90195175    -0.78260
O3286       O  0.86585578  0.22990490  0.94703251    -0.65840
Ni3287     Ni  0.86376103  0.26313244  0.78563423     1.34870
C3288       C  0.85630159  0.23792685  0.94604865     0.85260
O3289       O  0.82225392  0.22427581  0.81874901    -0.78800
O3290       O  0.83793051  0.24080436  0.76338731    -0.89070
C3291       C  0.83628199  0.19225802  0.86718083     0.84840
O3292       O  0.87674098  0.25042471  0.76797929    -0.67270
O3293       O  0.89623027  0.23444461  0.89630513    -0.86560
C3294       C  0.86778895  0.23193683  0.76729443     0.85670
C3295       C  0.82215983  0.22663137  0.78113795     1.07240
H3296       H  0.87617370  0.23288721  0.84120038     0.39040
O3297       O  0.86807304  0.23196461  0.86356135    -1.09220
O3298       O  0.86073893  0.25123171  0.91970333    -0.65870
Ni3299     Ni  0.87973738  0.25835484  0.87480412     1.26350
O3300       O  0.85250860  0.22173664  0.78948655    -0.66100
O3301       O  0.90024380  0.26142456  0.91539771    -0.78390
C3302       C  0.89555568  0.29471771  0.83947644     0.85050
O3303       O  0.89082808  0.28570001  0.87406988    -0.65570
Ni3304     Ni  0.86921659  0.21664681  0.90207026     1.27450
Ni3305     Ni  0.84430020  0.22684406  0.84152232     1.26060
H3306       H  0.85124843  0.25834734  0.85321571     0.39590
O3307       O  0.91424575  0.37647519  0.81380903    -0.80360
O3308       O  0.97268046  0.46255258  0.81479045    -0.65050
O3309       O  0.92955767  0.41210284  0.79630123    -1.11650
C3310       C  0.97762343  0.41484495  0.69973892     1.06530
O3311       O  0.96984087  0.46242105  0.75055868    -0.78260
O3312       O  0.96375925  0.44081505  0.68493403    -0.65840
Ni3313     Ni  0.92030435  0.39820364  0.84691433     1.34870
C3314       C  0.94586234  0.43433268  0.68906160     0.85260
O3315       O  0.93722889  0.44407940  0.83883973    -0.78800
O3316       O  0.92664714  0.42057109  0.88362296    -0.89070
C3317       C  0.97870454  0.47142048  0.78212919     0.84840
O3318       O  0.94421255  0.40072677  0.86220814    -0.67270
O3319       O  0.98844259  0.43246457  0.71191792    -0.86560
C3320       C  0.96062132  0.41670046  0.86401429     0.85670
C3321       C  0.93268022  0.43820646  0.87468564     1.07240
H3322       H  0.97249074  0.42609654  0.78522118     0.39040
O3323       O  0.96443644  0.42918422  0.77071451    -1.09220
O3324       O  0.93558264  0.42146640  0.71602906    -0.65870
Ni3325     Ni  0.94184815  0.40627789  0.75059770     1.26350
O3326       O  0.96287996  0.43214311  0.85071712    -0.66100
O3327       O  0.95855361  0.40380272  0.70734834    -0.78390
C3328       C  0.92808936  0.37436886  0.80417347     0.85050
O3329       O  0.94352260  0.38799992  0.78471586    -0.65570
Ni3330     Ni  0.98012445  0.44823445  0.73092717     1.27450
Ni3331     Ni  0.95124177  0.43716467  0.80612181     1.26060
H3332       H  0.91910574  0.41291970  0.78575931     0.39590
O3333       O  0.54552022  0.04281854  0.50450257    -0.80360
O3334       O  0.62042153  0.06960138  0.54747754    -0.65050
O3335       O  0.57831420  0.04909988  0.53464107    -1.11650
C3336       C  0.57071695  0.09070121  0.61560270     1.06530
O3337       O  0.63282239  0.09953044  0.57321227    -0.78260
O3338       O  0.60557308  0.07293516  0.62202058    -0.65840
Ni3339     Ni  0.55964299  0.03095531  0.99827126     1.34870
C3340       C  0.58917578  0.05684717  0.62456121     0.85260
O3341       O  0.60334397  0.04921012  0.97337766    -0.78800
O3342       O  0.57535793  0.02137070  0.99299412    -0.89070
C3343       C  0.63476907  0.08575740  0.56274716     0.84840
O3344       O  0.57139024  0.04453792  0.94942167    -0.67270
O3345       O  0.58757152  0.09516508  0.62842080    -0.86560
C3346       C  0.57372824  0.06063512  0.94731907     0.85670
C3347       C  0.59158586  0.02989808  0.97344200     1.07240
H3348       H  0.59688479  0.09484945  0.53347504     0.39040
O3349       O  0.59682201  0.08484198  0.54850988    -1.09220
O3350       O  0.57387148  0.05543553  0.61188332    -0.65870
Ni3351     Ni  0.57051678  0.06457965  0.56036367     1.26350
O3352       O  0.58662753  0.07363863  0.97055065    -0.66100
O3353       O  0.56385391  0.08090564  0.58361413    -0.78390
C3354       C  0.53542209  0.03650594  0.53638835     0.85050
O3355       O  0.54384454  0.04435173  0.56894337    -0.65570
Ni3356     Ni  0.61013689  0.09648507  0.59872482     1.27450
Ni3357     Ni  0.60199870  0.06935281  0.50953336     1.26060
H3358       H  0.58069095  0.04208215  0.55398286     0.39590
O3359       O  0.81149583  0.14058751  0.65267959    -0.80360
O3360       O  0.72352076  0.11770460  0.63316157    -0.65050
O3361       O  0.77550339  0.12927056  0.63352692    -1.11650
C3362       C  0.79111343  0.18149592  0.54577190     1.06530
O3363       O  0.72687403  0.11920104  0.56530522    -0.78260
O3364       O  0.75980153  0.12913981  0.52555216    -0.65840
Ni3365     Ni  0.78769832  0.13076636  0.68330618     1.34870
C3366       C  0.77657089  0.13209687  0.52958811     0.85260
O3367       O  0.74102996  0.10038155  0.67249253    -0.78800
O3368       O  0.76418398  0.11830098  0.71577208    -0.89070
C3369       C  0.71624249  0.11530324  0.59744586     0.84840
O3370       O  0.79010585  0.15501599  0.68926816    -0.67270
O3371       O  0.77418339  0.16885570  0.53049056    -0.86560
C3372       C  0.77543696  0.15664376  0.69271226     0.85670
C3373       C  0.75015546  0.10155103  0.70494897     1.07240
H3374       H  0.75849429  0.15541254  0.61617316     0.39040
O3375       O  0.76016992  0.14600940  0.60250683    -1.09220
O3376       O  0.78833494  0.14296420  0.55706985    -0.65870
Ni3377     Ni  0.78647076  0.15425785  0.60674906     1.26350
O3378       O  0.75768474  0.14276725  0.68221857    -0.66100
O3379       O  0.79636039  0.17811935  0.57900731    -0.78390
C3380       C  0.81695814  0.15054358  0.62027358     0.85050
O3381       O  0.81274674  0.16275504  0.61412304    -0.65570
Ni3382     Ni  0.75051125  0.14375047  0.54955450     1.27450
Ni3383     Ni  0.74986224  0.12347558  0.63707343     1.26060
H3384       H  0.77536667  0.11989928  0.61555097     0.39590
C3385       C  0.65503201  0.09028527  0.56767086    -0.04810
C3386       C  0.67060175  0.10705605  0.54765844    -0.01920
C3387       C  0.69020947  0.11580513  0.55983583     0.03070
C3388       C  0.69497255  0.10721973  0.59046225    -0.04800
C3389       C  0.67956447  0.09004065  0.60963111    -0.01910
C3390       C  0.65965189  0.08192820  0.59912504     0.03060
C3391       C  0.66633522  0.11585722  0.51510147     0.37710
C3392       C  0.68416755  0.08056676  0.63981527     0.37700
C3393       C  0.64413055  0.06572681  0.62257114     0.36130
C3394       C  0.70546208  0.13432124  0.54184031     0.36130
N3395       N  0.63235359  0.05294173  0.64264465    -0.38690
N3396       N  0.71760205  0.14911740  0.52771052    -0.38690
N3397       N  0.68783659  0.07295461  0.66379880    -0.38140
N3398       N  0.66292604  0.12288056  0.48924323    -0.38140
C3399       C  0.83902424  0.23000271  0.97529504    -0.04810
C3400       C  0.81959984  0.22019416  0.96073709    -0.01920
C3401       C  0.80345481  0.20492797  0.98378354     0.03070
C3402       C  0.80628030  0.20052274  0.02370474    -0.04800
C3403       C  0.82509170  0.21404958  0.54131268    -0.01910
C3404       C  0.84139482  0.22770648  0.01665623     0.03060
C3405       C  0.81611441  0.22636842  0.92283791     0.37710
C3406       C  0.82812619  0.21399073  0.58465542     0.37700
C3407       C  0.86092540  0.23936501  0.03372060     0.36130
C3408       C  0.78412449  0.19387400  0.96589987     0.36130
N3409       N  0.87657559  0.24866585  0.54714133    -0.38690
N3410       N  0.76869991  0.18510307  0.95150841    -0.38690
N3411       N  0.83084143  0.21401973  0.61908982    -0.38140
N3412       N  0.81299310  0.23188601  0.89377382    -0.38140
C3413       C  0.77969373  0.17460872  0.71442956    -0.04810
C3414       C  0.77930469  0.17454717  0.75709021    -0.01920
C3415       C  0.79067985  0.19215341  0.77909122     0.03070
C3416       C  0.80460361  0.21006085  0.75845241    -0.04800
C3417       C  0.80265332  0.21038327  0.71583986    -0.01910
C3418       C  0.78950906  0.19282454  0.69440535     0.03060
C3419       C  0.76790947  0.15608921  0.77846742     0.37710
C3420       C  0.81380604  0.22867726  0.69398772     0.37700
C3421       C  0.78441185  0.19376816  0.65313351     0.36130
C3422       C  0.78803353  0.19115295  0.82300677     0.36130
N3423       N  0.77977832  0.19529822  0.62115424    -0.38690
N3424       N  0.78558929  0.18995361  0.85794156    -0.38690
N3425       N  0.82266499  0.24327339  0.67642524    -0.38140
N3426       N  0.75889828  0.14140853  0.79563652    -0.38140
C3427       C  0.92589668  0.35631132  0.81955548    -0.04810
C3428       C  0.93039911  0.34534816  0.79448162    -0.01920
C3429       C  0.92235752  0.32559250  0.80383003     0.03070
C3430       C  0.90929126  0.31647122  0.83768280    -0.04800
C3431       C  0.90729711  0.32829222  0.86591414    -0.01910
C3432       C  0.91587112  0.34817698  0.85729849     0.03060
C3433       C  0.94216809  0.35389659  0.75765558     0.37710
C3434       C  0.89517033  0.31985386  0.90237432     0.37700
C3435       C  0.91359361  0.35997525  0.88703918     0.36130
C3436       C  0.92750796  0.31474620  0.77797252     0.36130
N3437       N  0.91161536  0.36913491  0.91110293    -0.38690
N3438       N  0.93221514  0.30673585  0.75673266    -0.38690
N3439       N  0.88550071  0.31323164  0.93147324    -0.38140
N3440       N  0.95158088  0.36068922  0.72830894    -0.38140
C3441       C  0.93664218  0.45377332  0.90464281    -0.04810
C3442       C  0.92254055  0.45829991  0.91013798    -0.01920
C3443       C  0.92817348  0.47722695  0.92277268     0.03070
C3444       C  0.94838482  0.49235581  0.92996473    -0.04800
C3445       C  0.96241201  0.48765700  0.92454567    -0.01910
C3446       C  0.95650536  0.46852897  0.91344233     0.03060
C3447       C  0.90218922  0.44359008  0.90063067     0.37710
C3448       C  0.98323888  0.50258738  0.92847785     0.37700
C3449       C  0.97156888  0.46463287  0.91018091     0.36130
C3450       C  0.91295355  0.48113598  0.92553626     0.36130
N3451       N  0.98482274  0.46323469  0.90900605    -0.38690
N3452       N  0.90074706  0.48415632  0.92761451    -0.38690
N3453       N  0.99993461  0.51433767  0.93037138    -0.38140
N3454       N  0.88597412  0.43183997  0.89301232    -0.38140
C3455       C  0.93444385  0.47160884  0.61960954    -0.04810
C3456       C  0.93027080  0.46883447  0.66225378    -0.01920
C3457       C  0.93186838  0.45501990  0.68421932     0.03070
C3458       C  0.93815357  0.44398605  0.66464336    -0.04800
C3459       C  0.94089332  0.44556288  0.62202329    -0.01910
C3460       C  0.93848525  0.45865441  0.59952729     0.03060
C3461       C  0.92493138  0.48053443  0.68457082     0.37710
C3462       C  0.94672645  0.43388851  0.60117659     0.37700
C3463       C  0.94069088  0.45872628  0.55554383     0.36130
C3464       C  0.92815887  0.45309573  0.72778504     0.36130
N3465       N  0.94249786  0.45864767  0.52051726    -0.38690
N3466       N  0.92508246  0.45169395  0.76251206    -0.38690
N3467       N  0.95146242  0.42466795  0.58452997    -0.38140
N3468       N  0.92069763  0.48981264  0.70273987    -0.38140
C3469       C  0.91149206  0.59083088  0.57307275    -0.04810
C3470       C  0.90517418  0.57823529  0.53879560    -0.01920
C3471       C  0.91356125  0.56771193  0.52954989     0.03070
C3472       C  0.92773125  0.56895760  0.55538109    -0.04800
C3473       C  0.93368552  0.58107357  0.59031447    -0.01910
C3474       C  0.92566350  0.59210927  0.59899688     0.03060
C3475       C  0.88932144  0.57534889  0.51370049     0.37710
C3476       C  0.94821525  0.58230462  0.61708313     0.37700
C3477       C  0.93220663  0.60495648  0.63404597     0.36130
C3478       C  0.90676368  0.55475174  0.99450100     0.36130
N3479       N  0.93737868  0.61518592  0.66207151    -0.38690
N3480       N  0.90137762  0.54444019  0.96659258    -0.38690
N3481       N  0.95978998  0.58325197  0.63843220    -0.38140
N3482       N  0.87665642  0.57287243  0.99364784    -0.38140
C3483       C  0.79527259  0.59733903  0.94143334    -0.04810
C3484       C  0.81493294  0.61409894  0.94484049    -0.01920
C3485       C  0.83098826  0.61210931  0.94593224     0.03070
C3486       C  0.82819492  0.59455921  0.95834697    -0.04800
C3487       C  0.80857718  0.57777724  0.95876322    -0.01910
C3488       C  0.79247682  0.57893601  0.94728607     0.03060
C3489       C  0.81903004  0.63354026  0.94911159     0.37710
C3490       C  0.80499608  0.55934298  0.97155086     0.37700
C3491       C  0.77288513  0.56134457  0.94506459     0.36130
C3492       C  0.85044462  0.62808837  0.93361875     0.36130
N3493       N  0.75722139  0.54728035  0.94330558    -0.38690
N3494       N  0.86583749  0.64068216  0.92237919    -0.38690
N3495       N  0.80212531  0.54461598  0.98185962    -0.38140
N3496       N  0.82206668  0.64896619  0.95216432    -0.38140
C3497       C  0.79821729  0.57632607  0.73507801    -0.04810
C3498       C  0.79849046  0.57522803  0.69203757    -0.01920
C3499       C  0.81600148  0.58008523  0.67059427     0.03070
C3500       C  0.83377467  0.58719384  0.69144812    -0.04800
C3501       C  0.83256237  0.58506166  0.73398477    -0.01910
C3502       C  0.81483517  0.57892159  0.75555651     0.03060
C3503       C  0.78100607  0.56942751  0.66951012     0.37710
C3504       C  0.84998867  0.59000887  0.75582643     0.37700
C3505       C  0.81422990  0.57580048  0.79912441     0.36130
C3506       C  0.81572246  0.57800158  0.62687406     0.36130
N3507       N  0.81386552  0.57337342  0.83384280    -0.38690
N3508       N  0.81483975  0.57566428  0.59203536    -0.38690
N3509       N  0.86378777  0.59381402  0.77348542    -0.38140
N3510       N  0.76705691  0.56473723  0.65134786    -0.38140
C3511       C  0.65575520  0.55772808  0.80272600    -0.04810
C3512       C  0.66984414  0.57805667  0.80092198    -0.01920
C3513       C  0.68983027  0.58580767  0.80942405     0.03070
C3514       C  0.69570617  0.57311992  0.81857215    -0.04800
C3515       C  0.68122513  0.55296661  0.82342461    -0.01910
C3516       C  0.66145734  0.54531554  0.81508717     0.03060
C3517       C  0.66372785  0.59090030  0.79063563     0.37710
C3518       C  0.68666962  0.54000428  0.83755051     0.37700
C3519       C  0.64690712  0.52446743  0.81878417     0.36130
C3520       C  0.70417311  0.60668303  0.80926875     0.36130
N3521       N  0.63529213  0.50788038  0.82169872    -0.38690
N3522       N  0.71553575  0.62338330  0.80980182    -0.38690
N3523       N  0.69102697  0.52971434  0.84886150    -0.38140
N3524       N  0.65881815  0.60113349  0.78235080    -0.38140
C3525       C  0.57725400  0.49588409  0.65733495    -0.04810
C3526       C  0.57126364  0.47736209  0.67337369    -0.01920
C3527       C  0.55573674  0.45981546  0.65466562     0.03070
C3528       C  0.54475959  0.46083950  0.62334260    -0.04800
C3529       C  0.55046277  0.47940795  0.60978501    -0.01910
C3530       C  0.56835293  0.49606468  0.62124695     0.03060
C3531       C  0.58066517  0.47617597  0.70891576     0.37710
C3532       C  0.53584921  0.48189501  0.59300454     0.37700
C3533       C  0.57654344  0.51388366  0.59802226     0.36130
C3534       C  0.55061055  0.44095404  0.66845230     0.36130
N3535       N  0.58345692  0.52817516  0.57966076    -0.38690
N3536       N  0.54648284  0.42582558  0.67929030    -0.38690
N3537       N  0.52354485  0.48373864  0.58287834    -0.38140
N3538       N  0.58808687  0.47485883  0.73711252    -0.38140
C3539       C  0.55240420  0.45719082  0.86869124    -0.04810
C3540       C  0.55288943  0.45489540  0.91131108    -0.01920
C3541       C  0.53720553  0.43793105  0.93113310     0.03070
C3542       C  0.51996282  0.42439475  0.90984363    -0.04800
C3543       C  0.52104726  0.42482736  0.86712319    -0.01910
C3544       C  0.53753568  0.44056880  0.84655821     0.03060
C3545       C  0.56905543  0.46989954  0.93527022     0.37710
C3546       C  0.50483161  0.40914863  0.84434037     0.37700
C3547       C  0.53870968  0.43947250  0.80259570     0.36130
C3548       C  0.53916930  0.43398655  0.97279312     0.36130
N3549       N  0.53953569  0.43848853  0.76754044    -0.38690
N3550       N  0.54156970  0.43053235  0.00525327    -0.38690
N3551       N  0.49201835  0.39665976  0.82586292    -0.38140
N3552       N  0.58190187  0.48182213  0.95465173    -0.38140
C3553       C  0.45426147  0.34770093  0.55553426    -0.04810
C3554       C  0.46516248  0.33972190  0.54493698    -0.01920
C3555       C  0.45785826  0.32023292  0.55485222     0.03070
C3556       C  0.43938820  0.30837460  0.57494767    -0.04800
C3557       C  0.42853939  0.31645659  0.58580998    -0.01910
C3558       C  0.43604868  0.33609395  0.57641877     0.03060
C3559       C  0.48424714  0.35179087  0.52487491     0.37710
C3560       C  0.40922224  0.30443308  0.60483130     0.37700
C3561       C  0.42475211  0.34423964  0.58715626     0.36130
C3562       C  0.46958918  0.31247172  0.54491659     0.36130
N3563       N  0.41575367  0.35075768  0.59562168    -0.38690
N3564       N  0.47894988  0.30629072  0.53702843    -0.38690
N3565       N  0.39375153  0.29506408  0.61987255    -0.38140
N3566       N  0.49945951  0.36145872  0.50891106    -0.38140
C3567       C  0.41989972  0.16796328  0.95910370    -0.04810
C3568       C  0.42962723  0.18658639  0.94087855    -0.01920
C3569       C  0.43134389  0.20260854  0.96202844     0.03070
C3570       C  0.42419322  0.20029587  0.00261691    -0.04800
C3571       C  0.41910926  0.18280174  0.02328431    -0.01910
C3572       C  0.41700955  0.16692842  0.00141945     0.03060
C3573       C  0.43803051  0.18919460  0.90047434     0.37710
C3574       C  0.41479544  0.18011331  0.56671642     0.37700
C3575       C  0.40984615  0.14862039  0.02183834     0.36130
C3576       C  0.44046226  0.22129251  0.94199001     0.36130
N3577       N  0.40419183  0.13420697  0.03885617    -0.38690
N3578       N  0.44789720  0.23631833  0.92628313    -0.38690
N3579       N  0.41100319  0.17761641  0.60114688    -0.38140
N3580       N  0.44560757  0.19171246  0.86892932    -0.38140
C3581       C  0.42498178  0.20060525  0.75006266    -0.04810
C3582       C  0.42340612  0.21486032  0.77186389    -0.01920
C3583       C  0.42163734  0.22866180  0.75082737     0.03070
C3584       C  0.42284567  0.22963439  0.70819666    -0.04800
C3585       C  0.42936253  0.21895778  0.68774199    -0.01910
C3586       C  0.42969844  0.20402577  0.70806440     0.03060
C3587       C  0.42324829  0.21553077  0.81593727     0.37710
C3588       C  0.43666315  0.22389835  0.64632284     0.37700
C3589       C  0.43541976  0.19262164  0.68588255     0.36130
C3590       C  0.41760289  0.24144394  0.77279807     0.36130
N3591       N  0.44013103  0.18359088  0.66829817    -0.38690
N3592       N  0.41445018  0.25170945  0.79021612    -0.38690
N3593       N  0.44365887  0.22798809  0.61401477    -0.38140
N3594       N  0.42317952  0.21619435  0.85111787    -0.38140
C3595       C  0.52123478  0.08766995  0.67467461    -0.04810
C3596       C  0.52496563  0.09161003  0.63273798    -0.01920
C3597       C  0.54278174  0.09579609  0.61447614     0.03070
C3598       C  0.55693436  0.09505231  0.63758345    -0.04800
C3599       C  0.55488594  0.09496196  0.68046493    -0.01910
C3600       C  0.53748669  0.09221688  0.69880752     0.03060
C3601       C  0.51016226  0.09106924  0.60822875     0.37710
C3602       C  0.57019468  0.09692243  0.70557851     0.37700
C3603       C  0.53628255  0.09396025  0.74235513     0.36130
C3604       C  0.54613377  0.10022682  0.57130384     0.36130
N3605       N  0.53593096  0.09628280  0.77704414    -0.38690
N3606       N  0.54872949  0.10373284  0.53686618    -0.38690
N3607       N  0.58263424  0.09867901  0.72530891    -0.38140
N3608       N  0.49854263  0.09099441  0.58862643    -0.38140
C3609       C  0.52576198  0.06117384  0.89198104    -0.04810
C3610       C  0.52711180  0.04492912  0.88791639    -0.01920
C3611       C  0.54232073  0.04472503  0.90638472     0.03070
C3612       C  0.55803686  0.06171213  0.92623359    -0.04800
C3613       C  0.55665116  0.07808491  0.93013598    -0.01910
C3614       C  0.54046468  0.07764067  0.91359742     0.03060
C3615       C  0.51318538  0.02811601  0.86364460     0.37710
C3616       C  0.57154565  0.09535178  0.95173005     0.37700
C3617       C  0.53910762  0.09432512  0.91803618     0.36130
C3618       C  0.54069630  0.02622152  0.90581039     0.36130
N3619       N  0.53795409  0.10760373  0.92175618    -0.38690
N3620       N  0.53908446  0.01137681  0.90549551    -0.38690
N3621       N  0.58335937  0.10917838  0.46899522    -0.38140
N3622       N  0.50311853  0.01420989  0.84459923    -0.38140
C3623       C  0.44031416  0.07840673  0.80006795    -0.04810
C3624       C  0.44797571  0.09654807  0.78069418    -0.01920
C3625       C  0.43954445  0.10739616  0.78819640     0.03070
C3626       C  0.42312782  0.10038397  0.81515812    -0.04800
C3627       C  0.41545338  0.08228576  0.83461593    -0.01910
C3628       C  0.42390303  0.07139600  0.82711889     0.03060
C3629       C  0.46527281  0.10468940  0.75439021     0.37710
C3630       C  0.39845342  0.07452551  0.86158906     0.37700
C3631       C  0.41527557  0.05264020  0.84673940     0.36130
C3632       C  0.44846727  0.12635149  0.76917221     0.36130
N3633       N  0.40837465  0.03767960  0.86244155    -0.38690
N3634       N  0.45561305  0.14146339  0.75400552    -0.38690
N3635       N  0.38489004  0.06834752  0.88313096    -0.38140
N3636       N  0.47908104  0.11120302  0.73346134    -0.38140
C3637       C  0.84353968  0.14762327  0.82942775    -0.04810
C3638       C  0.82462974  0.14352534  0.84046881    -0.01920
C3639       C  0.82247390  0.15874897  0.84963305     0.03070
C3640       C  0.83907874  0.17766517  0.85060842    -0.04800
C3641       C  0.85744697  0.18199163  0.83505428    -0.01910
C3642       C  0.85941570  0.16680696  0.82369290     0.03060
C3643       C  0.80714721  0.12445491  0.84743828     0.37710
C3644       C  0.87481747  0.20138759  0.83012989     0.37700
C3645       C  0.87827394  0.17080979  0.80895568     0.36130
C3646       C  0.80328294  0.15487372  0.86157176     0.36130
N3647       N  0.89321357  0.17394076  0.79731732    -0.38690
N3648       N  0.78814907  0.15183133  0.87130961    -0.38690
N3649       N  0.89010962  0.21544201  0.82342591    -0.38140
N3650       N  0.79155068  0.11119789  0.85576409    -0.38140
C3651       C  0.78347007  0.12305213  0.50130161    -0.04810
C3652       C  0.80129886  0.13521879  0.97991946    -0.01920
C3653       C  0.81131519  0.12743333  0.96245140     0.03070
C3654       C  0.80321212  0.10706090  0.96507638    -0.04800
C3655       C  0.78376135  0.09469365  0.98138495    -0.01910
C3656       C  0.77410314  0.10272598  0.49996988     0.03060
C3657       C  0.80929878  0.15586288  0.97585513     0.37710
C3658       C  0.77352016  0.07359118  0.48010838     0.37700
C3659       C  0.75460690  0.09018642  0.51799514     0.36130
C3660       C  0.83005699  0.14092330  0.94248277     0.36130
N3661       N  0.73898368  0.08022580  0.53206749    -0.38690
N3662       N  0.84492794  0.15206875  0.92666444    -0.38690
N3663       N  0.76514032  0.05678438  0.47862868    -0.38140
N3664       N  0.81564197  0.17225837  0.97208567    -0.38140
C3665       C  0.75962986  0.06521202  0.78085449    -0.04810
C3666       C  0.74935432  0.07321024  0.79701091    -0.01920
C3667       C  0.74355915  0.08298520  0.77143053     0.03070
C3668       C  0.74695574  0.08415567  0.72881210    -0.04800
C3669       C  0.75275769  0.07208563  0.71228468    -0.01910
C3670       C  0.75912426  0.06283143  0.73806525     0.03060
C3671       C  0.74687566  0.07337390  0.84075137     0.37710
C3672       C  0.75223595  0.06911938  0.66883018     0.37700
C3673       C  0.76732221  0.05260065  0.72062314     0.36130
C3674       C  0.73410877  0.09198028  0.78893992     0.36130
N3675       N  0.77387735  0.04433962  0.70719550    -0.38690
N3676       N  0.72615750  0.09880831  0.80277336    -0.38690
N3677       N  0.75109151  0.06581583  0.63432110    -0.38140
N3678       N  0.74481312  0.07348282  0.87568458    -0.38140
C3679       C  0.78368056  0.01373351  0.90964538    -0.04810
C3680       C  0.79106347  0.00601300  0.93653373    -0.01920
C3681       C  0.78209574  0.98572103  0.93901588     0.03070
C3682       C  0.76596051  0.97308611  0.91432281    -0.04800
C3683       C  0.75780971  0.98062277  0.88949113    -0.01910
C3684       C  0.76656492  0.00086930  0.88730723     0.03060
C3685       C  0.80860860  0.01886333  0.95995791     0.37710
C3686       C  0.74036397  0.96746252  0.86604715     0.37700
C3687       C  0.75778179  0.00838552  0.86239758     0.36130
C3688       C  0.79018159  0.97791192  0.96519727     0.36130
N3689       N  0.75075750  0.01437220  0.84258533    -0.38690
N3690       N  0.79659034  0.97164912  0.98606599    -0.38690
N3691       N  0.72646212  0.95693838  0.84740141    -0.38140
N3692       N  0.82258566  0.02905194  0.97869164    -0.38140
C3693       C  0.74876312  0.86118542  0.58066245    -0.04810
C3694       C  0.74643926  0.87541817  0.60000715    -0.01920
C3695       C  0.74551578  0.88919089  0.57692705     0.03070
C3696       C  0.74963532  0.89103706  0.53492678    -0.04800
C3697       C  0.75704279  0.88059971  0.51778927    -0.01910
C3698       C  0.75561208  0.86498669  0.53948176     0.03060
C3699       C  0.74569016  0.87668655  0.64376201     0.37710
C3700       C  0.76635605  0.88658178  0.97769536     0.37700
C3701       C  0.76145669  0.85324784  0.51940029     0.36130
C3702       C  0.73945975  0.90101632  0.59612000     0.36130
N3703       N  0.76614269  0.84388209  0.50324546    -0.38690
N3704       N  0.73451691  0.91033862  0.61144480    -0.38690
N3705       N  0.77434829  0.89265739  0.94670373    -0.38140
N3706       N  0.74570005  0.87785878  0.67881007    -0.38140
C3707       C  0.76549733  0.84725501  0.76448954    -0.04810
C3708       C  0.77025076  0.86445892  0.74442296    -0.01920
C3709       C  0.77078111  0.87978253  0.76630450     0.03070
C3710       C  0.76704784  0.87803444  0.80876819    -0.04800
C3711       C  0.76800968  0.86329196  0.82902429    -0.01910
C3712       C  0.76782736  0.84843228  0.80665467     0.03060
C3713       C  0.77518253  0.86635987  0.70154491     0.37710
C3714       C  0.76814668  0.86220342  0.87290786     0.37700
C3715       C  0.76690702  0.83249623  0.82728456     0.36130
C3716       C  0.77503514  0.89705047  0.74536346     0.36130
N3717       N  0.76614335  0.81976306  0.84363849    -0.38690
N3718       N  0.77858614  0.91098034  0.72885672    -0.38690
N3719       N  0.76805165  0.85993897  0.90757565    -0.38140
N3720       N  0.77984579  0.86822551  0.66754325    -0.38140
C3721       C  0.77022308  0.74306864  0.63370939    -0.04810
C3722       C  0.78068755  0.76246386  0.61942587    -0.01920
C3723       C  0.77291296  0.77385895  0.62561845     0.03070
C3724       C  0.75471011  0.76595079  0.64628243    -0.04800
C3725       C  0.74396532  0.74639817  0.65942797    -0.01910
C3726       C  0.75170803  0.73497959  0.65315859     0.03060
C3727       C  0.79996177  0.77105260  0.60039499     0.37710
C3728       C  0.72485804  0.73799671  0.67905372     0.37700
C3729       C  0.74058767  0.71484270  0.66649646     0.36130
C3730       C  0.78400333  0.79399079  0.61216324     0.36130
N3731       N  0.73170721  0.69875479  0.67698999    -0.38690
N3732       N  0.79285495  0.81006583  0.60157133    -0.38690
N3733       N  0.70959516  0.73129929  0.69461708    -0.38140
N3734       N  0.81535969  0.77791098  0.58536214    -0.38140
C3735       C  0.83650022  0.67789102  0.60402479    -0.04810
C3736       C  0.81970056  0.66087053  0.62103317    -0.01920
C3737       C  0.81822872  0.64333108  0.61783770     0.03070
C3738       C  0.83081516  0.64226407  0.59062799    -0.04800
C3739       C  0.84439068  0.65843828  0.56628684    -0.01910
C3740       C  0.84908529  0.67664208  0.57739404     0.03060
C3741       C  0.80208365  0.65953411  0.63387589     0.37710
C3742       C  0.85161052  0.65674456  0.52729291     0.37700
C3743       C  0.86580284  0.69423353  0.55937176     0.36130
C3744       C  0.80251359  0.62592053  0.63858681     0.36130
N3745       N  0.87863338  0.70910077  0.54712483    -0.38690
N3746       N  0.78991554  0.61214473  0.65509825    -0.38690
N3747       N  0.85751260  0.65703582  0.49493880    -0.38140
N3748       N  0.78637919  0.65529561  0.64218037    -0.38140
C3749       C  0.75441196  0.66079817  0.01890555    -0.04810
C3750       C  0.74488099  0.64039076  0.52546327    -0.01920
C3751       C  0.74151039  0.62745501  0.99261097     0.03070
C3752       C  0.74639082  0.63444875  0.95220076    -0.04800
C3753       C  0.75133405  0.65374587  0.94536952    -0.01910
C3754       C  0.75586409  0.66693055  0.97834246     0.03060
C3755       C  0.74084578  0.63318192  0.56693796     0.37710
C3756       C  0.75330705  0.66058998  0.90397345     0.37700
C3757       C  0.76428923  0.68734750  0.97025231     0.36130
C3758       C  0.73494044  0.60752410  0.50101398     0.36130
N3759       N  0.77110952  0.70367385  0.96381660    -0.38690
N3760       N  0.72972667  0.59160775  0.50778564    -0.38690
N3761       N  0.75489148  0.66606696  0.87096119    -0.38140
N3762       N  0.73770579  0.62749849  0.60008051    -0.38140
C3763       C  0.77641997  0.63427462  0.73874749    -0.04810
C3764       C  0.79706121  0.64850253  0.73513019    -0.01920
C3765       C  0.80474154  0.66857249  0.73047282     0.03070
C3766       C  0.79225637  0.67508448  0.72261859    -0.04800
C3767       C  0.77162335  0.66080851  0.72348125    -0.01910
C3768       C  0.76382988  0.64070679  0.73145976     0.03060
C3769       C  0.81090395  0.64273151  0.73342219     0.37710
C3770       C  0.75829487  0.66648045  0.71384678     0.37700
C3771       C  0.74287044  0.62646449  0.72841357     0.36130
C3772       C  0.82590937  0.68248707  0.73350882     0.36130
N3773       N  0.72618318  0.61505284  0.72473709    -0.38690
N3774       N  0.84275673  0.69348626  0.73588114    -0.38690
N3775       N  0.74761149  0.67095912  0.70606361    -0.38140
N3776       N  0.82214981  0.63842430  0.73127771    -0.38140
C3777       C  0.26396824  0.02867229  0.66598846    -0.04810
C3778       C  0.25658689  0.02049768  0.70523917    -0.01920
C3779       C  0.24621287  0.00014372  0.71138682     0.03070
C3780       C  0.24386520  0.98778935  0.67864274    -0.04800
C3781       C  0.25514625  0.99668369  0.64224949    -0.01910
C3782       C  0.26458372  0.01690138  0.63553783     0.03060
C3783       C  0.25900207  0.03307169  0.73914079     0.37710
C3784       C  0.25714084  0.98517860  0.61120611     0.37700
C3785       C  0.27375573  0.02510060  0.59630999     0.36130
C3786       C  0.23744636  0.99213497  0.75100715     0.36130
N3787       N  0.28097823  0.03107946  0.56464962    -0.38690
N3788       N  0.23056967  0.98584816  0.78276952    -0.38690
N3789       N  0.25879134  0.97609055  0.58638586    -0.38140
N3790       N  0.26103473  0.04312698  0.76616127    -0.38140
C3791       C  0.31741800  0.07296175  0.01207687    -0.04810
C3792       C  0.33694128  0.07903802  0.52135664    -0.01920
C3793       C  0.35074702  0.08249671  0.98986853     0.03070
C3794       C  0.34576503  0.08137460  0.94865951    -0.04800
C3795       C  0.32537550  0.07111382  0.94013767    -0.01910
C3796       C  0.31127595  0.06692213  0.97164377     0.03060
C3797       C  0.34325973  0.08320319  0.56323764     0.37710
C3798       C  0.31938767  0.06739841  0.89803644     0.37700
C3799       C  0.29081062  0.05801319  0.96189868     0.36130
C3800       C  0.37076612  0.08921886  0.99929898     0.36130
N3801       N  0.27437147  0.05063480  0.95443911    -0.38690
N3802       N  0.38672010  0.09423805  0.50629040    -0.38690
N3803       N  0.31462320  0.06446285  0.86438302    -0.38140
N3804       N  0.34831696  0.08658850  0.59668253    -0.38140
C3805       C  0.31514535  0.10775645  0.71773034    -0.04810
C3806       C  0.32288917  0.09632671  0.72423216    -0.01920
C3807       C  0.34218957  0.10485614  0.73952631     0.03070
C3808       C  0.35464060  0.12521182  0.74676924    -0.04800
C3809       C  0.34718466  0.13676048  0.73827377    -0.01910
C3810       C  0.32753077  0.12802310  0.72579750     0.03060
C3811       C  0.31162328  0.07585828  0.71373148     0.37710
C3812       C  0.35990286  0.15788190  0.74031241     0.37700
C3813       C  0.31960215  0.13984324  0.72250384     0.36130
C3814       C  0.34904833  0.09241086  0.74797041     0.36130
N3815       N  0.31190512  0.14800295  0.71979423    -0.38690
N3816       N  0.35445977  0.08242515  0.75458803    -0.38690
N3817       N  0.37007949  0.17471951  0.74153159    -0.38140
N3818       N  0.30345733  0.05950919  0.70555211    -0.38140
C3819       C  0.30642460  0.16116445  0.58077781    -0.04810
C3820       C  0.31270177  0.17198458  0.61654793    -0.01920
C3821       C  0.33177913  0.17887593  0.62904001     0.03070
C3822       C  0.34506369  0.17879614  0.60023996    -0.04800
C3823       C  0.33911024  0.17453972  0.55848464    -0.01910
C3824       C  0.31998285  0.16911491  0.54888441     0.03060
C3825       C  0.29876739  0.17252815  0.64289308     0.37710
C3826       C  0.35032161  0.17180629  0.52777286     0.37700
C3827       C  0.31210751  0.16351636  0.50855120     0.36130
C3828       C  0.33638923  0.18412075  0.67130156     0.36130
N3829       N  0.30423571  0.15771823  0.47786924    -0.38690
N3830       N  0.33991311  0.18834880  0.70519447    -0.38690
N3831       N  0.35894826  0.16887397  0.50383486    -0.38140
N3832       N  0.28816261  0.17371068  0.66442482    -0.38140
C3833       C  0.12803727  0.86369232  0.83468056    -0.04810
C3834       C  0.12709292  0.86385301  0.79168696    -0.01920
C3835       C  0.14328272  0.87880660  0.76827110     0.03070
C3836       C  0.16086529  0.89391413  0.78692692    -0.04800
C3837       C  0.16015380  0.89571728  0.82962133    -0.01910
C3838       C  0.14384560  0.88095341  0.85327338     0.03060
C3839       C  0.11017741  0.84790846  0.77076915     0.37710
C3840       C  0.17698328  0.91212574  0.84949944     0.37700
C3841       C  0.14369346  0.88343387  0.89697995     0.36130
C3842       C  0.14144268  0.87835704  0.72461924     0.36130
N3843       N  0.14354522  0.88550652  0.93185410    -0.38690
N3844       N  0.13814739  0.87715159  0.69028796    -0.38690
N3845       N  0.19043911  0.92532243  0.86517349    -0.38140
N3846       N  0.09684959  0.83513639  0.75386282    -0.38140
C3847       C  0.12576175  0.83934886  0.53410191    -0.04810
C3848       C  0.12455217  0.85587387  0.53529479    -0.01920
C3849       C  0.13847151  0.87308716  0.55814314     0.03070
C3850       C  0.15466613  0.87461401  0.57759837    -0.04800
C3851       C  0.15630355  0.85853190  0.57376618    -0.01910
C3852       C  0.14134753  0.84080601  0.55604641     0.03060
C3853       C  0.10935567  0.85534284  0.01239492     0.37710
C3854       C  0.17454349  0.86066478  0.58366320     0.37700
C3855       C  0.14247341  0.82392853  0.55984809     0.36130
C3856       C  0.13637479  0.88932562  0.56085642     0.36130
N3857       N  0.14333733  0.81046070  0.56206484    -0.38690
N3858       N  0.13471808  0.90233904  0.56296378    -0.38690
N3859       N  0.18904749  0.86177476  0.58898330    -0.38140
N3860       N  0.09726529  0.85498880  0.99396020    -0.38140
C3861       C  0.84043789  0.72985523  0.51089770    -0.04810
C3862       C  0.85727204  0.74831484  0.52270218    -0.01920
C3863       C  0.87656200  0.75487919  0.50710920     0.03070
C3864       C  0.87965738  0.74221650  0.98394681    -0.04800
C3865       C  0.86302958  0.72326409  0.97628423    -0.01910
C3866       C  0.84387484  0.71840440  0.98399386     0.03060
C3867       C  0.85492685  0.76075843  0.55006112     0.37710
C3868       C  0.86523333  0.70764477  0.96419003     0.37700
C3869       C  0.82785843  0.70128730  0.96347406     0.36130
C3870       C  0.89319075  0.77444473  0.51532384     0.36130
N3871       N  0.81525427  0.68769111  0.94688099    -0.38690
N3872       N  0.90653131  0.79007664  0.52191682    -0.38690
N3873       N  0.86589162  0.69430245  0.95651508    -0.38140
N3874       N  0.85321905  0.77082161  0.57197134    -0.38140
C3875       C  0.86914177  0.75077000  0.71763317    -0.04810
C3876       C  0.87185085  0.75357510  0.76010469    -0.01920
C3877       C  0.88870839  0.75585739  0.77816422     0.03070
C3878       C  0.90177470  0.75307679  0.75489321    -0.04800
C3879       C  0.90051533  0.75280502  0.71238240    -0.01910
C3880       C  0.88530657  0.75316106  0.69382045     0.03060
C3881       C  0.85747269  0.75413249  0.78536185     0.37710
C3882       C  0.91487325  0.75194886  0.68746337     0.37700
C3883       C  0.88664829  0.75582987  0.64993061     0.36130
C3884       C  0.89268137  0.76140136  0.82045130     0.36130
N3885       N  0.88787770  0.75792519  0.61498001    -0.38690
N3886       N  0.89595712  0.76669631  0.85382030    -0.38690
N3887       N  0.92619447  0.75123858  0.66722808    -0.38140
N3888       N  0.84605322  0.75466183  0.80565569    -0.38140
C3889       C  0.98554269  0.75904191  0.90165269    -0.04810
C3890       C  0.00093869  0.77440121  0.87860784    -0.01920
C3891       C  0.02048313  0.78324093  0.89059368     0.03070
C3892       C  0.02500392  0.77587982  0.92420763    -0.04800
C3893       C  0.00964015  0.76006328  0.94660577    -0.01910
C3894       C  0.98988105  0.75192683  0.93588731     0.03060
C3895       C  0.99653809  0.78154686  0.84306500     0.37710
C3896       C  0.01414023  0.75188031  0.97991255     0.37700
C3897       C  0.97415558  0.73653163  0.96067606     0.36130
C3898       C  0.03596676  0.80028529  0.86854447     0.36130
N3899       N  0.96201213  0.72428926  0.98126265    -0.38690
N3900       N  0.04821302  0.81387052  0.85091302    -0.38690
N3901       N  0.01774118  0.74532852  0.00643044    -0.38140
N3902       N  0.99297355  0.78713967  0.81470722    -0.38140
C3903       C  0.91554026  0.70306248  0.96806651    -0.04810
C3904       C  0.91010279  0.69932176  0.00906871    -0.01920
C3905       C  0.90067797  0.68015661  0.52427262     0.03070
C3906       C  0.89865222  0.66492457  0.99910792    -0.04800
C3907       C  0.90881991  0.67039528  0.96096914    -0.01910
C3908       C  0.91746426  0.68955703  0.94595859     0.03060
C3909       C  0.91635779  0.71572296  0.53616336     0.37710
C3910       C  0.91013206  0.65633382  0.93686427     0.37700
C3911       C  0.93091320  0.69657886  0.91148476     0.36130
C3912       C  0.89336778  0.67702634  0.56563082     0.36130
N3913       N  0.94258897  0.70304547  0.88550142    -0.38690
N3914       N  0.88787392  0.67621490  0.59873352    -0.38690
N3915       N  0.91105636  0.64494096  0.91797767    -0.38140
N3916       N  0.92177122  0.72890658  0.55771468    -0.38140
C3917       C  0.93587027  0.70072881  0.75413941    -0.04810
C3918       C  0.92895033  0.68110861  0.76499930    -0.01920
C3919       C  0.92088672  0.66576594  0.73567447     0.03070
C3920       C  0.91946767  0.66942916  0.69476931    -0.04800
C3921       C  0.92990834  0.68930645  0.68263229    -0.01910
C3922       C  0.93809161  0.70476781  0.71197498     0.03060
C3923       C  0.92765085  0.67567264  0.80709390     0.37710
C3924       C  0.93210117  0.69385423  0.63970062     0.37700
C3925       C  0.94748938  0.72475516  0.69895474     0.36130
C3926       C  0.91240632  0.64579123  0.74822962     0.36130
N3927       N  0.95527584  0.74079529  0.68866940    -0.38690
N3928       N  0.90578109  0.62987818  0.75816146    -0.38690
N3929       N  0.93443040  0.69773861  0.60544632    -0.38140
N3930       N  0.92584801  0.66957807  0.83952043    -0.38140
C3931       C  0.85531174  0.68946390  0.84290920    -0.04810
C3932       C  0.86049638  0.67575612  0.84121408    -0.01920
C3933       C  0.84655702  0.65683467  0.83015901     0.03070
C3934       C  0.82712673  0.65118197  0.82941067    -0.04800
C3935       C  0.82168623  0.66468492  0.83116886    -0.01910
C3936       C  0.83623566  0.68427032  0.83615292     0.03060
C3937       C  0.87878785  0.67962250  0.85626728     0.37710
C3938       C  0.80149113  0.65892341  0.82875341     0.37700
C3939       C  0.83147012  0.69880604  0.83731795     0.36130
C3940       C  0.85171646  0.64263208  0.82463932     0.36130
N3941       N  0.82762985  0.71033011  0.83831790    -0.38690
N3942       N  0.85576480  0.63134521  0.82017593    -0.38690
N3943       N  0.78595103  0.65591724  0.82631343    -0.38140
N3944       N  0.89219917  0.68028421  0.86894297    -0.38140
C3945       C  0.26242589  0.10197265  0.49910837    -0.04810
C3946       C  0.26301367  0.10281050  0.95658073    -0.01920
C3947       C  0.25888227  0.11516929  0.93724166     0.03070
C3948       C  0.25990078  0.13067198  0.95884536    -0.04800
C3949       C  0.25759794  0.12877745  0.50161237    -0.01910
C3950       C  0.25662822  0.11293901  0.52072525     0.03060
C3951       C  0.26666370  0.09028064  0.93256830     0.37710
C3952       C  0.25633402  0.14282413  0.52565684     0.37700
C3953       C  0.24731701  0.10611005  0.56007301     0.36130
C3954       C  0.24898767  0.10895563  0.89898791     0.36130
N3955       N  0.23845285  0.09900577  0.58977335    -0.38690
N3956       N  0.23945853  0.10280058  0.87035968    -0.38690
N3957       N  0.25566061  0.15444981  0.54419111    -0.38140
N3958       N  0.26965518  0.08046984  0.91284013    -0.38140
C3959       C  0.25230569  0.15384869  0.75287120    -0.04810
C3960       C  0.24868388  0.13774010  0.77545641    -0.01920
C3961       C  0.24854817  0.12218015  0.75583229     0.03070
C3962       C  0.24989852  0.12169734  0.71284445    -0.04800
C3963       C  0.24735846  0.13496436  0.69105143    -0.01910
C3964       C  0.24915415  0.15119854  0.71091315     0.03060
C3965       C  0.24290830  0.13650886  0.81759266     0.37710
C3966       C  0.24182280  0.13180153  0.64889602     0.37700
C3967       C  0.24845155  0.16574300  0.68821408     0.36130
C3968       C  0.24711383  0.10674033  0.77916402     0.36130
N3969       N  0.24794110  0.17737836  0.67013296    -0.38690
N3970       N  0.24598609  0.09372086  0.79502437    -0.38690
N3971       N  0.23657121  0.12999517  0.61579491    -0.38140
N3972       N  0.23694321  0.13537116  0.85037000    -0.38140
C3973       C  0.32148448  0.15917580  0.80880557    -0.04810
C3974       C  0.33928795  0.17778834  0.81082204    -0.01920
C3975       C  0.35522670  0.18021171  0.83136281     0.03070
C3976       C  0.35375647  0.16397870  0.84829296    -0.04800
C3977       C  0.33673603  0.14503995  0.84245373    -0.01910
C3978       C  0.32071159  0.14270517  0.82207791     0.03060
C3979       C  0.34139016  0.19518238  0.79578067     0.37710
C3980       C  0.33462348  0.12788427  0.85922320     0.37700
C3981       C  0.30268068  0.12347747  0.81780213     0.36130
C3982       C  0.37237718  0.19976765  0.83899820     0.36130
N3983       N  0.28845655  0.10808532  0.81439248    -0.38690
N3984       N  0.38559109  0.21544516  0.84564953    -0.38690
N3985       N  0.33129685  0.11329800  0.87167784    -0.38140
N3986       N  0.34580539  0.21037278  0.78494378    -0.38140
C3987       C  0.33063756  0.20729754  0.94932066    -0.04810
C3988       C  0.33837558  0.22382095  0.97561181    -0.01920
C3989       C  0.35665332  0.23161972  0.99517642     0.03070
C3990       C  0.36779244  0.22361910  0.98775308    -0.04800
C3991       C  0.36144666  0.20891543  0.95856727    -0.01910
C3992       C  0.34269176  0.20001646  0.94142222     0.03060
C3993       C  0.32762586  0.23276486  0.98373291     0.37710
C3994       C  0.37464902  0.20317169  0.94608237     0.37700
C3995       C  0.33516976  0.18175513  0.92064644     0.36130
C3996       C  0.36406902  0.24789344  0.52317537     0.36130
N3997       N  0.32846480  0.16637296  0.90710515    -0.38690
N3998       N  0.37022218  0.26098774  0.54526825    -0.38690
N3999       N  0.38574318  0.19924502  0.93675844    -0.38140
N4000       N  0.31915504  0.24000931  0.99041744    -0.38140
C4001       C  0.32729280  0.24507691  0.74671013    -0.04810
C4002       C  0.34688625  0.25651241  0.76080332    -0.01920
C4003       C  0.36297942  0.26105828  0.73447928     0.03070
C4004       C  0.35971824  0.25494580  0.69338340    -0.04800
C4005       C  0.34082893  0.24783243  0.67765374    -0.01910
C4006       C  0.32490261  0.24357471  0.70408104     0.03060
C4007       C  0.34999556  0.26047750  0.80400103     0.37710
C4008       C  0.33702410  0.24224704  0.63517960     0.37700
C4009       C  0.30517325  0.23401104  0.68839321     0.36130
C4010       C  0.38253211  0.27006167  0.75060494     0.36130
N4011       N  0.28939190  0.22630340  0.67599218    -0.38690
N4012       N  0.39819850  0.27734138  0.76336099    -0.38690
N4013       N  0.33363614  0.23749872  0.60146630    -0.38140
N4014       N  0.35244609  0.26359221  0.83854292    -0.38140
C4015       C  0.24088905  0.24945116  0.90890378    -0.04810
C4016       C  0.25758702  0.25670609  0.88268738    -0.01920
C4017       C  0.26563791  0.24562896  0.87459929     0.03070
C4018       C  0.25746574  0.22734368  0.89327527    -0.04800
C4019       C  0.24141134  0.22049017  0.92101182    -0.01910
C4020       C  0.23311719  0.23142403  0.92862089     0.03060
C4021       C  0.26681968  0.27585019  0.86438291     0.37710
C4022       C  0.23283822  0.20171410  0.94055329     0.37700
C4023       C  0.21598708  0.22362459  0.95523328     0.36130
C4024       C  0.28268328  0.25330541  0.84772163     0.36130
N4025       N  0.20230684  0.21739330  0.97644666    -0.38690
N4026       N  0.29628199  0.25942858  0.82630494    -0.38690
N4027       N  0.22600092  0.18673039  0.95610670    -0.38140
N4028       N  0.27418227  0.29111347  0.84981069    -0.38140
C4029       C  0.16782056  0.26940011  0.50919811    -0.04810
C4030       C  0.15358843  0.27307365  0.49648287    -0.01920
C4031       C  0.13615492  0.26666634  0.51951655     0.03070
C4032       C  0.13233600  0.25640088  0.55616794    -0.04800
C4033       C  0.14510968  0.25038045  0.56595472    -0.01910
C4034       C  0.16277222  0.25704323  0.54307995     0.03060
C4035       C  0.15627424  0.28340766  0.95902585     0.37710
C4036       C  0.14019610  0.23723782  0.59974089     0.37700
C4037       C  0.17632453  0.25217174  0.55618805     0.36130
C4038       C  0.12263406  0.27157949  0.50597946     0.36130
N4039       N  0.18715812  0.24829640  0.56667387    -0.38690
N4040       N  0.11193655  0.27551642  0.49485006    -0.38690
N4041       N  0.13641876  0.22657099  0.62630006    -0.38140
N4042       N  0.15615197  0.29054187  0.92912398    -0.38140
C4043       C  0.11605136  0.25336798  0.79231634    -0.04810
C4044       C  0.12898914  0.25044248  0.76927881    -0.01920
C4045       C  0.14611541  0.25319448  0.78706915     0.03070
C4046       C  0.14960494  0.25746627  0.82916040    -0.04800
C4047       C  0.13351112  0.25438560  0.85314749    -0.01910
C4048       C  0.11772615  0.25399468  0.83502091     0.03060
C4049       C  0.12448109  0.24440352  0.72740820     0.37710
C4050       C  0.13163196  0.24847181  0.89511855     0.37700
C4051       C  0.10326321  0.25438086  0.86034300     0.36130
C4052       C  0.15961780  0.25109853  0.76215140     0.36130
N4053       N  0.09173408  0.25465222  0.88077265    -0.38690
N4054       N  0.17020750  0.24915633  0.74210162    -0.38690
N4055       N  0.12939794  0.24260585  0.92794790    -0.38140
N4056       N  0.12042871  0.23873373  0.69442885    -0.38140
C4057       C  0.93572861  0.23694126  0.51083747    -0.04810
C4058       C  0.93327204  0.25256657  0.01738027    -0.01920
C4059       C  0.92594247  0.25878532  0.98571066     0.03070
C4060       C  0.91790434  0.24730195  0.94989682    -0.04800
C4061       C  0.92079619  0.23164487  0.94521638    -0.01910
C4062       C  0.93325418  0.23005172  0.47095265     0.03060
C4063       C  0.93926146  0.26265515  0.05594225     0.37710
C4064       C  0.90835282  0.21441098  0.92023070     0.37700
C4065       C  0.93971365  0.21753598  0.45939219     0.36130
C4066       C  0.92596797  0.27618683  0.99094007     0.36130
N4067       N  0.94487341  0.20772816  0.44853995    -0.38690
N4068       N  0.92643925  0.29037897  0.99491656    -0.38690
N4069       N  0.89794480  0.20021490  0.90225291    -0.38140
N4070       N  0.94449697  0.27088541  0.08663430    -0.38140
C4071       C  0.87513554  0.22140125  0.74241851    -0.04810
C4072       C  0.86249590  0.20095026  0.73461151    -0.01920
C4073       C  0.87010078  0.19018518  0.71939369     0.03070
C4074       C  0.89031182  0.19962768  0.70932620    -0.04800
C4075       C  0.90253415  0.22021054  0.71319252    -0.01910
C4076       C  0.89514259  0.23088454  0.73001166     0.03060
C4077       C  0.84146574  0.19057565  0.74232853     0.37710
C4078       C  0.92287035  0.23071507  0.69900633     0.37700
C4079       C  0.90865769  0.25165756  0.73544194     0.36130
C4080       C  0.85711570  0.16912636  0.71617513     0.36130
N4081       N  0.91986152  0.26822968  0.73935118    -0.38690
N4082       N  0.84679472  0.15232422  0.71397965    -0.38690
N4083       N  0.93905803  0.23914062  0.68759986    -0.38140
N4084       N  0.82468993  0.18211016  0.74853665    -0.38140
C4085       C  0.85154798  0.13896995  0.54915880    -0.04810
C4086       C  0.83445408  0.12309395  0.56618832    -0.01920
C4087       C  0.82092913  0.12634418  0.58399631     0.03070
C4088       C  0.82606018  0.14572149  0.58761094    -0.04800
C4089       C  0.83975989  0.15954582  0.55919041    -0.01910
C4090       C  0.85109678  0.15481664  0.53604004     0.03060
C4091       C  0.83180910  0.10430998  0.56866787     0.37710
C4092       C  0.84345039  0.17867817  0.55529924     0.37700
C4093       C  0.86557171  0.16841296  0.50662671     0.36130
C4094       C  0.80143618  0.10992247  0.59398331     0.36130
N4095       N  0.87718013  0.17918918  0.48309918    -0.38690
N4096       N  0.78571321  0.09634955  0.59922827    -0.38690
N4097       N  0.84719701  0.19424288  0.55086547    -0.38140
N4098       N  0.82919520  0.08906492  0.57084376    -0.38140
C4099       C  0.91807931  0.15390132  0.51024729    -0.04810
C4100       C  0.90490489  0.13581652  0.52975572    -0.01920
C4101       C  0.88835266  0.12028745  0.50847399     0.03070
C4102       C  0.88434778  0.12318983  0.96817034    -0.04800
C4103       C  0.89992666  0.14013994  0.94740323    -0.01910
C4104       C  0.91731988  0.15394464  0.46780412     0.03060
C4105       C  0.90838350  0.13330794  0.57143917     0.37710
C4106       C  0.89823295  0.14462315  0.90587579     0.37700
C4107       C  0.93518836  0.16739977  0.94518157     0.36130
C4108       C  0.87592459  0.10136549  0.52738553     0.36130
N4109       N  0.94963091  0.17734087  0.92677561    -0.38690
N4110       N  0.86605949  0.08596892  0.54146479    -0.38690
N4111       N  0.89694420  0.14869389  0.87309986    -0.38140
N4112       N  0.91143164  0.13108949  0.60443501    -0.38140
C4113       C  0.84869578  0.08788237  0.76142291    -0.04810
C4114       C  0.84879485  0.08863476  0.71886016    -0.01920
C4115       C  0.86479724  0.10449006  0.69786579     0.03070
C4116       C  0.88032227  0.12078549  0.71957767    -0.04800
C4117       C  0.88206270  0.11780800  0.76121627    -0.01910
C4118       C  0.86654274  0.10090252  0.78153553     0.03060
C4119       C  0.83174193  0.07351105  0.69688935     0.37710
C4120       C  0.89993079  0.13150917  0.78268124     0.37700
C4121       C  0.86936762  0.09630084  0.82195259     0.36130
C4122       C  0.86495129  0.10360372  0.65394035     0.36130
N4123       N  0.87246197  0.09237321  0.85324460    -0.38690
N4124       N  0.86519359  0.10289010  0.61884458    -0.38690
N4125       N  0.91438598  0.14236308  0.79942408    -0.38140
N4126       N  0.81818274  0.06149719  0.67923493    -0.38140
C4127       C  0.98683247  0.21849518  0.66210586    -0.04810
C4128       C  0.99822587  0.23481698  0.68790579    -0.01920
C4129       C  0.01826949  0.24216152  0.69502257     0.03070
C4130       C  0.02699165  0.23302172  0.67704486    -0.04800
C4131       C  0.01515635  0.21594160  0.65352698    -0.01910
C4132       C  0.99536426  0.20889046  0.64573354     0.03060
C4133       C  0.98963709  0.24464993  0.70564145     0.37710
C4134       C  0.02343721  0.20556558  0.63698062     0.37700
C4135       C  0.98365162  0.19142261  0.62126344     0.36130
C4136       C  0.03015395  0.25973967  0.71895877     0.36130
N4137       N  0.97430628  0.17751950  0.60172728    -0.38690
N4138       N  0.03961621  0.27378197  0.73803882    -0.38690
N4139       N  0.03005636  0.19732303  0.62377249    -0.38140
N4140       N  0.98284730  0.25254947  0.71988008    -0.38140
C4141       C  0.49235267  0.49462445  0.76893893    -0.04810
C4142       C  0.49367051  0.48024989  0.78822903    -0.01920
C4143       C  0.50022002  0.47031225  0.76605938     0.03070
C4144       C  0.51277194  0.47996083  0.73251273    -0.04800
C4145       C  0.51034188  0.49298653  0.71032278    -0.01910
C4146       C  0.49981706  0.50013239  0.72826845     0.03060
C4147       C  0.49410195  0.47976332  0.83200430     0.37710
C4148       C  0.52184685  0.50233647  0.67360955     0.37700
C4149       C  0.49958981  0.51528771  0.70677671     0.36130
C4150       C  0.49911932  0.45375566  0.78393102     0.36130
N4151       N  0.49953339  0.52730178  0.68921231    -0.38690
N4152       N  0.49810614  0.44054143  0.79847744    -0.38690
N4153       N  0.53139548  0.51094795  0.64550742    -0.38140
N4154       N  0.49595166  0.48060526  0.86681742    -0.38140
C4155       C  0.41925149  0.41217328  0.85704474    -0.04810
C4156       C  0.42707714  0.40098776  0.84647792    -0.01920
C4157       C  0.43191566  0.39233002  0.87703130     0.03070
C4158       C  0.43003976  0.39554352  0.91853864    -0.04800
C4159       C  0.41808733  0.40261123  0.92832736    -0.01910
C4160       C  0.41274882  0.41090061  0.89779124     0.03060
C4161       C  0.43146012  0.39930023  0.80440007     0.37710
C4162       C  0.41395750  0.40406729  0.97079811     0.37700
C4163       C  0.40240301  0.41995130  0.90898315     0.36130
C4164       C  0.44146765  0.38245016  0.86609622     0.36130
N4165       N  0.39401548  0.42708608  0.91770559    -0.38690
N4166       N  0.44898602  0.37443877  0.85749946    -0.38690
N4167       N  0.41070776  0.40527505  0.00474201    -0.38140
N4168       N  0.43505014  0.39723007  0.77127906    -0.38140
C4169       C  0.47077331  0.44102913  0.62191968    -0.04810
C4170       C  0.46769321  0.45414362  0.60210085    -0.01920
C4171       C  0.46315603  0.46581468  0.62498558     0.03070
C4172       C  0.45642666  0.46080131  0.66534256    -0.04800
C4173       C  0.45497329  0.44441853  0.68235628    -0.01910
C4174       C  0.46415910  0.43608228  0.66280691     0.03060
C4175       C  0.46238817  0.45030726  0.55988331     0.37710
C4176       C  0.44126377  0.43416305  0.71554665     0.37700
C4177       C  0.46592085  0.42193894  0.68429864     0.36130
C4178       C  0.46353252  0.48193729  0.60722330     0.36130
N4179       N  0.46743961  0.41070721  0.70145782    -0.38690
N4180       N  0.46353135  0.49524170  0.59664747    -0.38690
N4181       N  0.42925741  0.42574813  0.74037602    -0.38140
N4182       N  0.45647836  0.44546317  0.52725900    -0.38140
C4183       C  0.32159982  0.41778851  0.71298771    -0.04810
C4184       C  0.33700659  0.43672882  0.70085773    -0.01920
C4185       C  0.35638117  0.44448001  0.71289739     0.03070
C4186       C  0.36091619  0.43305844  0.73550900    -0.04800
C4187       C  0.34580071  0.41360873  0.74526600    -0.01910
C4188       C  0.32610383  0.40599809  0.73415485     0.03060
C4189       C  0.33272708  0.44860895  0.67699182     0.37710
C4190       C  0.35054642  0.40147116  0.76631040     0.37700
C4191       C  0.31048577  0.38622971  0.74490273     0.36130
C4192       C  0.37161488  0.46465447  0.70324569     0.36130
N4193       N  0.29807269  0.37034465  0.75305389    -0.38690
N4194       N  0.38371482  0.48073562  0.69572847    -0.38690
N4195       N  0.35437910  0.39179365  0.78308334    -0.38140
N4196       N  0.32928338  0.45805038  0.65806099    -0.38140
C4197       C  0.16581477  0.31943951  0.68593016    -0.04810
C4198       C  0.17008916  0.33143665  0.72021478    -0.01920
C4199       C  0.17534654  0.35049136  0.71493697     0.03070
C4200       C  0.18221020  0.35899370  0.67616426    -0.04800
C4201       C  0.17536609  0.34697084  0.64172373    -0.01910
C4202       C  0.16893126  0.32745930  0.64607348     0.03060
C4203       C  0.17184581  0.32484876  0.75948139     0.37710
C4204       C  0.17761641  0.35539873  0.60180968     0.37700
C4205       C  0.16745196  0.31652746  0.60978065     0.36130
C4206       C  0.17720282  0.36230191  0.74979022     0.36130
N4207       N  0.16643941  0.30761685  0.58134693    -0.38690
N4208       N  0.17855479  0.37162271  0.77769995    -0.38690
N4209       N  0.17942691  0.36224641  0.57015271    -0.38140
N4210       N  0.17334491  0.31829616  0.78893023    -0.38140
C4211       C  0.27054020  0.35910765  0.58715545    -0.04810
C4212       C  0.27355710  0.36137445  0.54469340    -0.01920
C4213       C  0.26788243  0.34498180  0.51931044     0.03070
C4214       C  0.25983031  0.32616911  0.53621091    -0.04800
C4215       C  0.26059216  0.32497603  0.57892897    -0.01910
C4216       C  0.26587310  0.34126312  0.60418434     0.03060
C4217       C  0.28068676  0.38019140  0.52692644     0.37710
C4218       C  0.25363416  0.30625684  0.59709037     0.37700
C4219       C  0.26446455  0.33908336  0.64810006     0.36130
C4220       C  0.26782380  0.34716742  0.47577062     0.36130
N4221       N  0.26328261  0.33735642  0.68314116    -0.38690
N4222       N  0.26801462  0.34950084  0.94121910    -0.38690
N4223       N  0.24803872  0.29128052  0.61148831    -0.38140
N4224       N  0.28667447  0.39531968  0.51288545    -0.38140
C4225       C  0.24603604  0.36006825  0.77873233    -0.04810
C4226       C  0.23014043  0.34290674  0.76010628    -0.01920
C4227       C  0.22367261  0.32423114  0.77483538     0.03070
C4228       C  0.23368019  0.32205826  0.80619817    -0.04800
C4229       C  0.25128784  0.33868466  0.82019918    -0.01910
C4230       C  0.25706295  0.35763458  0.80804083     0.03060
C4231       C  0.22045373  0.34380849  0.72475599     0.37710
C4232       C  0.26343572  0.33602055  0.84697067     0.37700
C4233       C  0.27378879  0.37440994  0.82738188     0.36130
C4234       C  0.20615063  0.30712715  0.75835905     0.36130
N4235       N  0.28715129  0.38775803  0.84294994    -0.38690
N4236       N  0.19215211  0.29378514  0.74454518    -0.38690
N4237       N  0.27325332  0.33354633  0.86721510    -0.38140
N4238       N  0.21257070  0.34344461  0.69563740    -0.38140
C4239       C  0.27260457  0.91088489  0.84097536    -0.04810
C4240       C  0.27209872  0.91288998  0.79840424    -0.01920
C4241       C  0.26232951  0.92104426  0.78153855     0.03070
C4242       C  0.25192436  0.92667501  0.80625582    -0.04800
C4243       C  0.25368583  0.92606541  0.84901921    -0.01910
C4244       C  0.26448604  0.91891690  0.86612508     0.03060
C4245       C  0.28081837  0.90551538  0.77150195     0.37710
C4246       C  0.24371467  0.93215156  0.87557072     0.37700
C4247       C  0.26654047  0.91913060  0.90979425     0.36130
C4248       C  0.26160421  0.92198992  0.73810315     0.36130
N4249       N  0.26851782  0.91965102  0.94465930    -0.38690
N4250       N  0.26113813  0.92266796  0.70321177    -0.38690
N4251       N  0.23571251  0.93700135  0.89672548    -0.38140
N4252       N  0.28769382  0.89959498  0.74994207    -0.38140
C4253       C  0.23135307  0.90623355  0.58232562    -0.04810
C4254       C  0.22348687  0.89726512  0.54483109    -0.01920
C4255       C  0.23135072  0.88813314  0.52318772     0.03070
C4256       C  0.24575088  0.88595059  0.54096817    -0.04800
C4257       C  0.25552334  0.89773907  0.57559261    -0.01910
C4258       C  0.24926268  0.90916366  0.59353894     0.03060
C4259       C  0.20842991  0.89900781  0.52710485     0.37710
C4260       C  0.27186754  0.89832111  0.59333023     0.37700
C4261       C  0.26310376  0.92681042  0.61520309     0.36130
C4262       C  0.22707851  0.88451940  0.48052542     0.36130
N4263       N  0.27464395  0.94168006  0.62970584    -0.38690
N4264       N  0.22417906  0.88356706  0.94603775    -0.38690
N4265       N  0.28478344  0.89874025  0.60821684    -0.38140
N4266       N  0.19667917  0.90078078  0.51298232    -0.38140
C4267       C  0.18637589  0.82971073  0.92007803    -0.04810
C4268       C  0.18015053  0.84130747  0.90588365    -0.01920
C4269       C  0.16893219  0.83479797  0.87111313     0.03070
C4270       C  0.15473705  0.81471741  0.87320218    -0.04800
C4271       C  0.16208740  0.80308650  0.87806455    -0.01910
C4272       C  0.17760537  0.81033135  0.90539434     0.03060
C4273       C  0.18185951  0.85675869  0.93077887     0.37710
C4274       C  0.14996352  0.78248055  0.86905405     0.37700
C4275       C  0.18415268  0.79814970  0.91839861     0.36130
C4276       C  0.16588081  0.84800344  0.84985212     0.36130
N4277       N  0.18919462  0.78833127  0.92908778    -0.38690
N4278       N  0.16476468  0.85976722  0.83413796    -0.38690
N4279       N  0.14038488  0.76583598  0.86347485    -0.38140
N4280       N  0.18205582  0.86844683  0.45145129    -0.38140
C4281       C  0.37357450  0.91971940  0.97060243    -0.04810
C4282       C  0.36482033  0.91290868  0.93215088    -0.01920
C4283       C  0.34431538  0.90298391  0.92830645     0.03070
C4284       C  0.33242043  0.90029256  0.96299753    -0.04800
C4285       C  0.34191228  0.91090153  0.99900281    -0.01910
C4286       C  0.36242192  0.92029972  0.50275924     0.03060
C4287       C  0.37669713  0.91490836  0.89669340     0.37710
C4288       C  0.33088638  0.91267447  0.53165890     0.37700
C4289       C  0.37167108  0.92905072  0.54120243     0.36130
C4290       C  0.33578881  0.89488144  0.88883747     0.36130
N4291       N  0.37888433  0.93600437  0.57203397    -0.38690
N4292       N  0.32913784  0.88852266  0.85725555    -0.38690
N4293       N  0.32224685  0.91423290  0.55798334    -0.38140
N4294       N  0.38557697  0.91623341  0.86759494    -0.38140
C4295       C  0.43074108  0.98167593  0.59673279    -0.04810
C4296       C  0.44032477  0.00162900  0.58461675    -0.01920
C4297       C  0.44064407  0.01559863  0.61078141     0.03070
C4298       C  0.43442585  0.01091038  0.65156656    -0.04800
C4299       C  0.42182392  0.99083433  0.66114509    -0.01910
C4300       C  0.41999123  0.97624657  0.63406443     0.03060
C4301       C  0.45212848  0.00871541  0.54755768     0.37710
C4302       C  0.41232778  0.98549234  0.70086485     0.37700
C4303       C  0.40875428  0.95606916  0.64673407     0.36130
C4304       C  0.45086521  0.03585234  0.59854713     0.36130
N4305       N  0.39969582  0.93993000  0.65689658    -0.38690
N4306       N  0.45894353  0.05201433  0.58895887    -0.38690
N4307       N  0.40456070  0.98121371  0.73246573    -0.38140
N4308       N  0.46230816  0.01477172  0.51906831    -0.38140
C4309       C  0.43913591  0.96308630  0.89212121    -0.04810
C4310       C  0.43986168  0.97829021  0.91456539    -0.01920
C4311       C  0.44800683  0.99695057  0.89707428     0.03070
C4312       C  0.45464012  0.00060404  0.85612101    -0.04800
C4313       C  0.45176077  0.98483226  0.83233889    -0.01910
C4314       C  0.44358189  0.96616488  0.85000753     0.03060
C4315       C  0.43101631  0.97484903  0.95469905     0.37710
C4316       C  0.45673907  0.98746997  0.78925769     0.37700
C4317       C  0.43773320  0.94980637  0.82354981     0.36130
C4318       C  0.45030818  0.01271631  0.92200193     0.36130
N4319       N  0.43243511  0.93732298  0.80025463    -0.38690
N4320       N  0.45221378  0.02539780  0.94154108    -0.38690
N4321       N  0.46049014  0.98897076  0.75478567    -0.38140
N4322       N  0.42384549  0.97328985  0.98636183    -0.38140
C4323       C  0.51952107  0.01633114  0.53508724    -0.04810
C4324       C  0.52298381  0.00319748  0.55346038    -0.01920
C4325       C  0.51564212  0.98512314  0.53581042     0.03070
C4326       C  0.50412929  0.97972573  0.50084403    -0.04800
C4327       C  0.50112517  0.99304450  0.48175180    -0.01910
C4328       C  0.50760441  0.01078717  0.50065039     0.03060
C4329       C  0.53513315  0.00840882  0.58898473     0.37710
C4330       C  0.49129725  0.98856407  0.44305370     0.37700
C4331       C  0.50365356  0.02425821  0.48280576     0.36130
C4332       C  0.51916783  0.97160024  0.05496199     0.36130
N4333       N  0.50055576  0.03505801  0.46883348    -0.38690
N4334       N  0.52279906  0.96146794  0.07021487    -0.38690
N4335       N  0.48383010  0.98521283  0.41178772    -0.38140
N4336       N  0.54456635  0.01188289  0.61749805    -0.38140
C4337       C  0.70023276  0.89557690  0.81036546    -0.04810
C4338       C  0.69876002  0.89658990  0.76797527    -0.01920
C4339       C  0.68027270  0.88996989  0.75048161     0.03070
C4340       C  0.66316946  0.88238524  0.77538793    -0.04800
C4341       C  0.66564874  0.88502310  0.81774696    -0.01910
C4342       C  0.68435932  0.89266991  0.83476767     0.03060
C4343       C  0.71661256  0.90642197  0.74328994     0.37710
C4344       C  0.64899360  0.88043875  0.84343532     0.37700
C4345       C  0.68833193  0.90157107  0.87444102     0.36130
C4346       C  0.67947607  0.89340808  0.70790125     0.36130
N4347       N  0.69164586  0.90987674  0.90492202    -0.38690
N4348       N  0.67956126  0.89733133  0.67424169    -0.38690
N4349       N  0.63537576  0.87676863  0.86281585    -0.38140
N4350       N  0.73097972  0.91460959  0.72390801    -0.38140
C4351       C  0.65401183  0.90239149  0.56755567    -0.04810
C4352       C  0.67434644  0.91666505  0.57330158    -0.01920
C4353       C  0.68886515  0.91832133  0.54551157     0.03070
C4354       C  0.68309919  0.90615470  0.51075130    -0.04800
C4355       C  0.66271777  0.89499920  0.50123524    -0.01910
C4356       C  0.64850571  0.89408581  0.52843859     0.03060
C4357       C  0.68024821  0.92770773  0.61086223     0.37710
C4358       C  0.65594081  0.88267819  0.46548356     0.37700
C4359       C  0.62772588  0.88152346  0.51943367     0.36130
C4360       C  0.70952662  0.93097054  0.55503067     0.36130
N4361       N  0.61114646  0.87144768  0.51231287    -0.38690
N4362       N  0.72605202  0.94107713  0.56258890    -0.38690
N4363       N  0.65042530  0.87226116  0.93779921    -0.38140
N4364       N  0.68495004  0.93657892  0.64084715    -0.38140
C4365       C  0.67879336  0.82151758  0.69897265    -0.04810
C4366       C  0.66123429  0.80303582  0.69370521    -0.01920
C4367       C  0.64488271  0.80204786  0.67932753     0.03070
C4368       C  0.64757493  0.81859006  0.66034420    -0.04800
C4369       C  0.66636345  0.83612736  0.65864774    -0.01910
C4370       C  0.68110415  0.83809566  0.68249233     0.03060
C4371       C  0.65996481  0.78512458  0.70159947     0.37710
C4372       C  0.67019885  0.85322648  0.63794983     0.37700
C4373       C  0.69789590  0.85725046  0.69252136     0.36130
C4374       C  0.62553860  0.78550568  0.69112494     0.36130
N4375       N  0.71082791  0.87267099  0.70130933    -0.38690
N4376       N  0.61032015  0.77241630  0.70200598    -0.38690
N4377       N  0.67509289  0.86766297  0.62206642    -0.38140
N4378       N  0.65886633  0.77069901  0.70643806    -0.38140
C4379       C  0.48995039  0.92965807  0.66230824    -0.04810
C4380       C  0.48853463  0.92481039  0.62051277    -0.01920
C4381       C  0.47249732  0.92193890  0.59799157     0.03070
C4382       C  0.45879227  0.92518345  0.61664187    -0.04800
C4383       C  0.45827843  0.92600013  0.65932393    -0.01910
C4384       C  0.47264575  0.92586005  0.68174845     0.03060
C4385       C  0.50264298  0.92168683  0.60123188     0.37710
C4386       C  0.44289882  0.92665480  0.68015525     0.37700
C4387       C  0.46682560  0.91525496  0.71945089     0.36130
C4388       C  0.47016909  0.91568366  0.55605302     0.36130
N4389       N  0.46172815  0.90513246  0.74743174    -0.38690
N4390       N  0.46843341  0.91043103  0.52269995    -0.38690
N4391       N  0.43065465  0.92729578  0.69671115    -0.38140
N4392       N  0.51384399  0.91912764  0.58569137    -0.38140
C4393       C  0.49764314  0.92419690  0.84708028    -0.04810
C4394       C  0.48183866  0.92471673  0.83101372    -0.01920
C4395       C  0.46257771  0.91251146  0.84707976     0.03070
C4396       C  0.45973576  0.90428587  0.88535352    -0.04800
C4397       C  0.47439112  0.90167161  0.89930553    -0.01910
C4398       C  0.49308108  0.91099794  0.87924088     0.03060
C4399       C  0.48498018  0.93933937  0.80233583     0.37710
C4400       C  0.47025774  0.88976636  0.93492677     0.37700
C4401       C  0.50816742  0.90881731  0.89484208     0.36130
C4402       C  0.44552117  0.90854966  0.82537455     0.36130
N4403       N  0.52021233  0.90703935  0.90723941    -0.38690
N4404       N  0.43137966  0.90389262  0.80805249    -0.38690
N4405       N  0.46687634  0.88005356  0.96310873    -0.38140
N4406       N  0.48568325  0.95060762  0.78055869    -0.38140
C4407       C  0.57319364  0.91702857  0.73643367    -0.04810
C4408       C  0.56307288  0.89794272  0.75260867    -0.01920
C4409       C  0.56856310  0.88506622  0.74067667     0.03070
C4410       C  0.58408614  0.89091672  0.71210433    -0.04800
C4411       C  0.59370725  0.90958500  0.69468844    -0.01910
C4412       C  0.58853446  0.92266060  0.70702732     0.03060
C4413       C  0.54669944  0.89125013  0.78095180     0.37710
C4414       C  0.60968469  0.91571940  0.66551457     0.37700
C4415       C  0.59979197  0.94225058  0.69040185     0.36130
C4416       C  0.55822329  0.86563773  0.75805869     0.36130
N4417       N  0.60879572  0.95783872  0.67699297    -0.38690
N4418       N  0.55002605  0.85015918  0.77192206    -0.38690
N4419       N  0.62239346  0.92056408  0.64221381    -0.38140
N4420       N  0.53362876  0.88585105  0.80356677    -0.38140
C4421       C  0.53823371  0.01207044  0.76425299    -0.04810
C4422       C  0.55007252  0.03088022  0.78254017    -0.01920
C4423       C  0.54937294  0.04619336  0.76738698     0.03070
C4424       C  0.53778354  0.04278993  0.73359287    -0.04800
C4425       C  0.53234732  0.02704978  0.70786088    -0.01910
C4426       C  0.53093439  0.01078664  0.72441196     0.03060
C4427       C  0.56290997  0.03498073  0.81649316     0.37710
C4428       C  0.52311957  0.02560808  0.66943019     0.37700
C4429       C  0.52086229  0.99292803  0.70076471     0.36130
C4430       C  0.55723799  0.06403532  0.79069107     0.36130
N4431       N  0.51260017  0.97904789  0.68079368    -0.38690
N4432       N  0.56337094  0.07810355  0.80974052    -0.38690
N4433       N  0.51532315  0.02461936  0.63962472    -0.38140
N4434       N  0.57367945  0.03873958  0.84279688    -0.38140
C4435       C  0.58847598  0.98476049  0.89493198    -0.04810
C4436       C  0.58311760  0.98090934  0.93592689    -0.01920
C4437       C  0.58205684  0.99481201  0.95878482     0.03070
C4438       C  0.59417217  0.01533511  0.94887511    -0.04800
C4439       C  0.60505705  0.01998232  0.91160567    -0.01910
C4440       C  0.60121752  0.00467829  0.88372046     0.03060
C4441       C  0.57313854  0.96090511  0.95030547     0.37710
C4442       C  0.61824806  0.04013210  0.89966908     0.37700
C4443       C  0.60988608  0.00923434  0.84326518     0.36130
C4444       C  0.56389508  0.98629468  0.98192402     0.36130
N4445       N  0.61699924  0.01274995  0.81103080    -0.38690
N4446       N  0.54838561  0.97879300  0.99646348    -0.38690
N4447       N  0.62890821  0.05625212  0.89009155    -0.38140
N4448       N  0.56502964  0.94501031  0.96181678    -0.38140
C4449       C  0.57373830  0.00249113  0.67834822    -0.04810
C4450       C  0.57937154  0.01889443  0.70344129    -0.01920
C4451       C  0.58489775  0.03688828  0.68610569     0.03070
C4452       C  0.58742967  0.03949251  0.64380501    -0.04800
C4453       C  0.58722040  0.02469557  0.62047012    -0.01910
C4454       C  0.57871721  0.00581788  0.63673829     0.03060
C4455       C  0.58218016  0.01830850  0.74645191     0.37710
C4456       C  0.59844349  0.02906580  0.58306929     0.37700
C4457       C  0.57487574  0.98989304  0.61028846     0.36130
C4458       C  0.58933091  0.05319355  0.71182637     0.36130
N4459       N  0.57178446  0.97722113  0.58907690    -0.38690
N4460       N  0.59323682  0.06637729  0.73218001    -0.38690
N4461       N  0.60791915  0.03147076  0.55430792    -0.38140
N4462       N  0.58576706  0.01910263  0.78056052    -0.38140
C4463       C  0.43946885  0.49616989  0.88258176    -0.04810
C4464       C  0.44778069  0.49584737  0.91922375    -0.01920
C4465       C  0.46551840  0.51259582  0.93109706     0.03070
C4466       C  0.46997997  0.53110589  0.92099493    -0.04800
C4467       C  0.45916948  0.53219075  0.88921318    -0.01910
C4468       C  0.44472908  0.51471601  0.86814761     0.03060
C4469       C  0.44016913  0.47740378  0.93940938     0.37710
C4470       C  0.46374536  0.55100506  0.87663953     0.37700
C4471       C  0.43560157  0.51591091  0.83216619     0.36130
C4472       C  0.48208932  0.51101320  0.93407430     0.36130
N4473       N  0.42823111  0.51707040  0.80368907    -0.38690
N4474       N  0.49586373  0.51043957  0.93220649    -0.38690
N4475       N  0.46743842  0.56607826  0.86654836    -0.38140
N4476       N  0.43327626  0.46208869  0.95341161    -0.38140
C4477       C  0.46169325  0.53447065  0.67447238    -0.04810
C4478       C  0.47758149  0.55040628  0.69657620    -0.01920
C4479       C  0.49444195  0.56558109  0.67569108     0.03070
C4480       C  0.49516358  0.56616032  0.63299852    -0.04800
C4481       C  0.47733655  0.55377739  0.61238054    -0.01910
C4482       C  0.46103455  0.53734003  0.63227511     0.03060
C4483       C  0.47748363  0.55116439  0.74074652     0.37710
C4484       C  0.47577347  0.55810881  0.57075423     0.37700
C4485       C  0.44390533  0.52348185  0.60897012     0.36130
C4486       C  0.51182361  0.57977828  0.69800947     0.36130
N4487       N  0.43027382  0.51245205  0.59015237    -0.38690
N4488       N  0.52553971  0.59099915  0.71635062    -0.38690
N4489       N  0.47379871  0.56183834  0.53818788    -0.38140
N4490       N  0.47762251  0.55195026  0.77594228    -0.38140
C4491       C  0.58655922  0.59637704  0.62778020    -0.04810
C4492       C  0.59945457  0.59059703  0.61694393    -0.01920
C4493       C  0.60476383  0.58176602  0.64607592     0.03070
C4494       C  0.59811343  0.57968640  0.68684567    -0.04800
C4495       C  0.58986088  0.59022612  0.69913453    -0.01910
C4496       C  0.58464429  0.59898080  0.66968060     0.03060
C4497       C  0.60651120  0.59288666  0.57538571     0.37710
C4498       C  0.58481878  0.59023225  0.74165038     0.37700
C4499       C  0.57518256  0.60877461  0.68185797     0.36130
C4500       C  0.61512517  0.57291754  0.63325128     0.36130
N4501       N  0.56792185  0.61694479  0.69124695    -0.38690
N4502       N  0.62337797  0.56580583  0.62316169    -0.38690
N4503       N  0.58074368  0.59019199  0.77560128    -0.38140
N4504       N  0.61304814  0.59513243  0.54279159    -0.38140
C4505       C  0.56152732  0.53348730  0.87841070    -0.04810
C4506       C  0.56966414  0.54396495  0.91526068    -0.01920
C4507       C  0.56120623  0.55284525  0.93545796     0.03070
C4508       C  0.54446785  0.55117005  0.91989281    -0.04800
C4509       C  0.53707112  0.54197435  0.88221221    -0.01910
C4510       C  0.54573222  0.53349915  0.86121590     0.03060
C4511       C  0.58696247  0.54612882  0.93247624     0.37710
C4512       C  0.52100116  0.54196570  0.86422176     0.37700
C4513       C  0.53963453  0.52684938  0.82003598     0.36130
C4514       C  0.57015888  0.56447038  0.97155963     0.36130
N4515       N  0.53506830  0.52239148  0.78662369    -0.38690
N4516       N  0.57722630  0.57408026  0.00005935    -0.38690
N4517       N  0.50825740  0.54204232  0.84984558    -0.38140
N4518       N  0.60086141  0.54808698  0.94625348    -0.38140
C4519       C  0.50845902  0.50660642  0.52930831    -0.04810
C4520       C  0.52825707  0.51279753  0.52354024    -0.01920
C4521       C  0.53286930  0.50246285  0.49671555     0.03070
C4522       C  0.51767528  0.48574497  0.47680355    -0.04800
C4523       C  0.49841230  0.48141432  0.97863318    -0.01910
C4524       C  0.49365149  0.49098247  0.00674999     0.03060
C4525       C  0.54370254  0.52868467  0.54714492     0.37710
C4526       C  0.48333342  0.46769697  0.95120761     0.37700
C4527       C  0.47361840  0.48589037  0.01084851     0.36130
C4528       C  0.55273308  0.50705108  0.49404980     0.36130
N4529       N  0.45804813  0.48259187  0.01615654    -0.38690
N4530       N  0.56841434  0.51028910  0.49218344    -0.38690
N4531       N  0.47050258  0.45786222  0.92951823    -0.38140
N4532       N  0.55639302  0.54106426  0.56600562    -0.38140
C4533       C  0.61327974  0.78486612  0.85615145    -0.04810
C4534       C  0.62839047  0.80011802  0.83181187    -0.01920
C4535       C  0.62529962  0.81266531  0.80977555     0.03070
C4536       C  0.60698075  0.81067591  0.81167105    -0.04800
C4537       C  0.59163866  0.79537492  0.83545189    -0.01910
C4538       C  0.59471925  0.78253926  0.85754660     0.03060
C4539       C  0.64757817  0.80319027  0.82838692     0.37710
C4540       C  0.57259005  0.79271493  0.83678676     0.37700
C4541       C  0.57884304  0.76730941  0.88231001     0.36130
C4542       C  0.64154078  0.82739268  0.78472304     0.36130
N4543       N  0.56597910  0.75515351  0.90182064    -0.38690
N4544       N  0.65554544  0.83832021  0.76599064    -0.38690
N4545       N  0.55737238  0.79059729  0.83783618    -0.38140
N4546       N  0.66317744  0.80642804  0.82471770    -0.38140
C4547       C  0.57897149  0.77937351  0.54585666    -0.04810
C4548       C  0.56521244  0.78485870  0.54744567    -0.01920
C4549       C  0.57025854  0.80246936  0.56936594     0.03070
C4550       C  0.59023463  0.81621557  0.58045456    -0.04800
C4551       C  0.60339793  0.81114956  0.56806816    -0.01910
C4552       C  0.59660006  0.79168450  0.56450501     0.03060
C4553       C  0.54633162  0.77247607  0.52863509     0.37710
C4554       C  0.61962472  0.82443491  0.54135898     0.37700
C4555       C  0.60197758  0.78268592  0.59361909     0.34690
C4556       C  0.55592694  0.80721774  0.57616170     0.36130
N4557       N  0.60511814  0.77399899  0.61566097    -0.38690
N4558       N  0.54444055  0.81104491  0.58161774    -0.38690
N4559       N  0.63231202  0.83580385  0.52035588    -0.38140
N4560       N  0.53120641  0.76252780  0.51345427    -0.38140
C4561       C  0.58850778  0.68421966  0.98396028    -0.04810
C4562       C  0.58730822  0.67594081  0.02212505    -0.01920
C4563       C  0.57823369  0.65567133  0.02585678     0.03070
C4564       C  0.56843990  0.64319496  0.99217483    -0.04800
C4565       C  0.57095673  0.65191760  0.95315263    -0.01910
C4566       C  0.58148304  0.67231721  0.94919551     0.03060
C4567       C  0.59442520  0.68815056  0.55808418     0.37710
C4568       C  0.56190396  0.64035020  0.91673510     0.37700
C4569       C  0.58331578  0.68095708  0.90963843     0.36130
C4570       C  0.57905560  0.64798916  0.56456081     0.36130
N4571       N  0.58471467  0.68780067  0.87817369    -0.38690
N4572       N  0.57994872  0.64202216  0.59552964    -0.38690
N4573       N  0.55465935  0.63133199  0.88753897    -0.38140
N4574       N  0.59995824  0.69769237  0.58714695    -0.38140
C4575       C  0.65453206  0.82230340  0.97760583    -0.04810
C4576       C  0.65685798  0.83056998  0.93929254    -0.01920
C4577       C  0.67416261  0.83651916  0.91693246     0.03070
C4578       C  0.68905072  0.83522219  0.93550182    -0.04800
C4579       C  0.68607417  0.82834680  0.97587843    -0.01910
C4580       C  0.67170501  0.82854434  0.99842765     0.03060
C4581       C  0.64042888  0.82970931  0.92110002     0.37710
C4582       C  0.70034039  0.82629677  0.99641877     0.37700
C4583       C  0.67836712  0.84392350  0.02757553     0.36130
C4584       C  0.67670331  0.84455336  0.87666269     0.36130
N4585       N  0.68395540  0.85679444  0.55060457    -0.38690
N4586       N  0.67854743  0.85082528  0.84438785    -0.38690
N4587       N  0.71173462  0.82453977  0.01236815    -0.38140
N4588       N  0.62723690  0.82897456  0.90676715    -0.38140
C4589       C  0.65122183  0.74293481  0.83838790    -0.04810
C4590       C  0.65727425  0.75717742  0.80839685    -0.01920
C4591       C  0.67754830  0.76974769  0.80049858     0.03070
C4592       C  0.68908832  0.76186671  0.79752204    -0.04800
C4593       C  0.68135070  0.74395638  0.81848940    -0.01910
C4594       C  0.66342117  0.73574610  0.84248477     0.03060
C4595       C  0.64389606  0.76229527  0.79577634     0.37710
C4596       C  0.69290939  0.73568748  0.82000763     0.37700
C4597       C  0.65801196  0.72073827  0.87216874     0.36130
C4598       C  0.68664855  0.78852856  0.82024129     0.36130
N4599       N  0.65366213  0.70872724  0.89599450    -0.38690
N4600       N  0.69469470  0.80328208  0.83740077    -0.38690
N4601       N  0.70219530  0.72909159  0.82113124    -0.38140
N4602       N  0.63259443  0.76548517  0.78498580    -0.38140
C4603       C  0.64006430  0.76575071  0.56172648    -0.04810
C4604       C  0.65201041  0.78566560  0.57387748    -0.01920
C4605       C  0.67149639  0.79434114  0.58735893     0.03070
C4606       C  0.67955407  0.78323453  0.59258578    -0.04800
C4607       C  0.66816340  0.76348794  0.57994925    -0.01910
C4608       C  0.64906440  0.75512655  0.56311899     0.03060
C4609       C  0.64526011  0.79832198  0.57139185     0.37710
C4610       C  0.67613149  0.75170319  0.58357669     0.37700
C4611       C  0.64008374  0.73648664  0.54282136     0.36130
C4612       C  0.68394206  0.81536720  0.59317809     0.36130
N4613       N  0.63389155  0.72195796  0.52553982    -0.38690
N4614       N  0.69441086  0.83204631  0.59757356    -0.38690
N4615       N  0.68247522  0.74227501  0.58642742    -0.38140
N4616       N  0.64170450  0.80997419  0.57010229    -0.38140
C4617       C  0.19049186  0.84937915  0.67456342    -0.04810
C4618       C  0.20780166  0.85125323  0.66018441    -0.01920
C4619       C  0.20617568  0.83582911  0.63877172     0.03070
C4620       C  0.18750689  0.81853709  0.63578607    -0.04800
C4621       C  0.17021573  0.81804043  0.64431086    -0.01910
C4622       C  0.17186352  0.83402575  0.66221347     0.03060
C4623       C  0.22710118  0.86852404  0.66845959     0.37710
C4624       C  0.15070243  0.80037446  0.64636902     0.37700
C4625       C  0.15412443  0.83374368  0.67135485     0.36130
C4626       C  0.22367965  0.83628590  0.62761395     0.36130
N4627       N  0.14003932  0.83350660  0.67781254    -0.38690
N4628       N  0.23779022  0.83679977  0.61965447    -0.38690
N4629       N  0.13429255  0.78835829  0.65214990    -0.38140
N4630       N  0.24262115  0.88206891  0.67515765    -0.38140
C4631       C  0.13219362  0.77356375  0.77691026    -0.04810
C4632       C  0.11239192  0.76034838  0.79122941    -0.01920
C4633       C  0.10142569  0.76733404  0.80931574     0.03070
C4634       C  0.10923745  0.78745599  0.81036254    -0.04800
C4635       C  0.12737149  0.80010671  0.78978480    -0.01910
C4636       C  0.13929278  0.79364512  0.77582765     0.03060
C4637       C  0.10305373  0.73947916  0.78778537     0.37710
C4638       C  0.13363819  0.81989188  0.78124469     0.37700
C4639       C  0.15935732  0.80822793  0.76294982     0.36130
C4640       C  0.08229640  0.75381126  0.82780732     0.36130
N4641       N  0.17544390  0.81996192  0.75347848    -0.38690
N4642       N  0.06698569  0.74302743  0.84248422    -0.38690
N4643       N  0.13897928  0.83560074  0.77235562    -0.38140
N4644       N  0.09546038  0.72280000  0.78483979    -0.38140
C4645       C  0.09502424  0.73321216  0.59398454    -0.04810
C4646       C  0.08407281  0.74045533  0.61047435    -0.01920
C4647       C  0.07754361  0.74967029  0.58519719     0.03070
C4648       C  0.08092358  0.75099968  0.54260821    -0.04800
C4649       C  0.08856307  0.74057330  0.52563592    -0.01910
C4650       C  0.09520700  0.73150710  0.55105335     0.03060
C4651       C  0.08245262  0.74131085  0.65435963     0.37710
C4652       C  0.09192777  0.74130320  0.48199916     0.37700
C4653       C  0.10514368  0.72305972  0.53309199     0.36130
C4654       C  0.06913539  0.75956752  0.60342196     0.36130
N4655       N  0.11314749  0.71635365  0.51888678    -0.38690
N4656       N  0.06244735  0.76752004  0.61788867    -0.38690
N4657       N  0.09463993  0.74198001  0.94714034    -0.38140
N4658       N  0.08126264  0.74208731  0.68939793    -0.38140
C4659       C  0.21515768  0.79137820  0.79360546    -0.04810
C4660       C  0.23203031  0.80813415  0.77495184    -0.01920
C4661       C  0.24735097  0.82335555  0.79891021     0.03070
C4662       C  0.24680435  0.82216506  0.84170228    -0.04800
C4663       C  0.23251016  0.80387028  0.85911671    -0.01910
C4664       C  0.21659370  0.78881979  0.83584525     0.03060
C4665       C  0.23394137  0.81021932  0.73105061     0.37710
C4666       C  0.23431615  0.80055232  0.90140928     0.37700
C4667       C  0.20186073  0.77076425  0.85586303     0.36130
C4668       C  0.26314381  0.84114214  0.77973870     0.36130
N4669       N  0.19015224  0.75636438  0.87200226    -0.38690
N4670       N  0.27579795  0.85532694  0.76449293    -0.38690
N4671       N  0.23585133  0.79726542  0.93470611    -0.38140
N4672       N  0.23563746  0.81186755  0.69601511    -0.38140
C4673       C  0.18457402  0.76419943  0.57285321    -0.04810
C4674       C  0.18344820  0.77488212  0.54045221    -0.01920
C4675       C  0.19880396  0.79442507  0.53342019     0.03070
C4676       C  0.21826354  0.80170509  0.54465456    -0.04800
C4677       C  0.22073264  0.78988908  0.57170896    -0.01910
C4678       C  0.20383258  0.77194453  0.58791094     0.03060
C4679       C  0.16571132  0.76691654  0.51679918     0.37710
C4680       C  0.24034991  0.79633063  0.58372944     0.37700
C4681       C  0.20629528  0.76160972  0.61975440     0.36130
C4682       C  0.19363226  0.80789760  0.52179264     0.36130
N4683       N  0.20826499  0.75328736  0.64515819    -0.38690
N4684       N  0.18900456  0.81849411  0.51491416    -0.38690
N4685       N  0.25605697  0.80142465  0.59327017    -0.38140
N4686       N  0.15165886  0.76086666  0.49790695    -0.38140
C4687       C  0.09595097  0.64226265  0.75089530    -0.04810
C4688       C  0.11468749  0.65550379  0.76696847    -0.01920
C4689       C  0.12534538  0.67537615  0.75578682     0.03070
C4690       C  0.11734617  0.68223085  0.72824568    -0.04800
C4691       C  0.09804332  0.66920768  0.71433941    -0.01910
C4692       C  0.08736490  0.64935907  0.72582330     0.03060
C4693       C  0.12349738  0.64837883  0.79290706     0.37710
C4694       C  0.08914430  0.67621538  0.68835707     0.37700
C4695       C  0.06779856  0.63584619  0.71005101     0.36130
C4696       C  0.14502661  0.68862494  0.77123647     0.36130
N4697       N  0.05221041  0.62500119  0.69751252    -0.38690
N4698       N  0.16071934  0.69920250  0.78354079    -0.38690
N4699       N  0.08205820  0.68182440  0.66761630    -0.38140
N4700       N  0.13047761  0.64264679  0.81361063    -0.38140
C4701       C  0.01073828  0.56048568  0.84211539    -0.04810
C4702       C  0.01337484  0.57781752  0.85835271    -0.01920
C4703       C  0.99774674  0.57749494  0.87984154     0.03070
C4704       C  0.97863151  0.55999273  0.88534411    -0.04800
C4705       C  0.97503847  0.54369198  0.86311858    -0.01910
C4706       C  0.99088139  0.54334378  0.84470490     0.03060
C4707       C  0.03246474  0.59606516  0.85510997     0.37710
C4708       C  0.95491721  0.52705564  0.85944144     0.37700
C4709       C  0.98626492  0.52448490  0.83159549     0.36130
C4710       C  0.00151031  0.59547783  0.89723769     0.36130
N4711       N  0.98201251  0.50898876  0.82313615    -0.38690
N4712       N  0.00451315  0.60982200  0.91111685    -0.38690
N4713       N  0.93884758  0.51387651  0.85570831    -0.38140
N4714       N  0.04767260  0.61069548  0.85259558    -0.38140
C4715       C  0.03051938  0.56497568  0.65138085    -0.04810
C4716       C  0.02828809  0.56911891  0.61104460    -0.01920
C4717       C  0.00978389  0.56464897  0.59793476     0.03070
C4718       C  0.99279306  0.55383214  0.62308952    -0.04800
C4719       C  0.99547364  0.55195340  0.66437031    -0.01910
C4720       C  0.01462255  0.55940518  0.67883490     0.03060
C4721       C  0.04528557  0.57920456  0.58394104     0.37710
C4722       C  0.97881467  0.54374304  0.69236210     0.37700
C4723       C  0.01879026  0.56709604  0.71945186     0.36130
C4724       C  0.00870745  0.57342632  0.56116599     0.36130
N4725       N  0.02154100  0.57490233  0.75036495    -0.38690
N4726       N  0.00825317  0.58114019  0.53247033    -0.38690
N4727       N  0.96548896  0.53726861  0.71465527    -0.38140
N4728       N  0.05894832  0.58733746  0.56254191    -0.38140
C4729       C  0.03324633  0.50241081  0.73217113    -0.04810
C4730       C  0.02911523  0.48883692  0.76206698    -0.01920
C4731       C  0.01264072  0.48214417  0.78688510     0.03070
C4732       C  0.99889082  0.48667915  0.77701317    -0.04800
C4733       C  0.00248775  0.49921645  0.74485150    -0.01910
C4734       C  0.01871363  0.50538292  0.72000848     0.03060
C4735       C  0.04282760  0.48330860  0.76907141     0.37710
C4736       C  0.98805926  0.50347835  0.73417005     0.37700
C4737       C  0.02033077  0.51508799  0.68266495     0.36130
C4738       C  0.00999020  0.47046439  0.82173169     0.36130
N4739       N  0.02010919  0.52223899  0.65301639    -0.38690
N4740       N  0.00884909  0.46155686  0.84963646    -0.38690
N4741       N  0.97641639  0.50657564  0.72560413    -0.38140
N4742       N  0.05350810  0.47856643  0.77438519    -0.38140
C4743       C  0.22299463  0.41467182  0.80885051    -0.04810
C4744       C  0.21040685  0.42078271  0.79855943    -0.01920
C4745       C  0.19279485  0.41437991  0.82140928     0.03070
C4746       C  0.18740480  0.40173252  0.85499066    -0.04800
C4747       C  0.20111435  0.39735925  0.86735801    -0.01910
C4748       C  0.21873129  0.40394067  0.84504423     0.03060
C4749       C  0.21541922  0.43358050  0.76407801     0.37710
C4750       C  0.19746616  0.38587553  0.90332883     0.37700
C4751       C  0.23181792  0.39843064  0.85839771     0.36130
C4752       C  0.17953680  0.41962027  0.80828234     0.36130
N4753       N  0.24215776  0.39399367  0.86928027    -0.38690
N4754       N  0.16894114  0.42379402  0.79775773    -0.38690
N4755       N  0.19632468  0.37747700  0.93223374    -0.38140
N4756       N  0.21931650  0.44395104  0.73686221    -0.38140
C4757       C  0.20426990  0.40937145  0.53551904    -0.04810
C4758       C  0.21951882  0.41050405  0.51201155    -0.01920
C4759       C  0.23422695  0.40938487  0.53076151     0.03070
C4760       C  0.23644312  0.41141870  0.57333182    -0.04800
C4761       C  0.22469771  0.41626611  0.59547416    -0.01910
C4762       C  0.20812741  0.41442820  0.57721277     0.03060
C4763       C  0.22271299  0.41743600  0.47060916     0.37710
C4764       C  0.22960917  0.42312287  0.63687743     0.37700
C4765       C  0.19581389  0.41860737  0.60100413     0.36130
C4766       C  0.24717999  0.40645029  0.50590915     0.36130
N4767       N  0.18635613  0.42243432  0.62007218    -0.38690
N4768       N  0.25730310  0.40398787  0.48552265    -0.38690
N4769       N  0.23385926  0.42927132  0.66951231    -0.38140
N4770       N  0.22627813  0.42434506  0.43854510    -0.38140
C4771       C  0.08953576  0.31440851  0.77988826    -0.04810
C4772       C  0.09326036  0.33128543  0.75994756    -0.01920
C4773       C  0.09713064  0.34782892  0.78268824     0.03070
C4774       C  0.09674925  0.34759412  0.82575293    -0.04800
C4775       C  0.08892056  0.32928771  0.84467927    -0.01910
C4776       C  0.08586721  0.31300765  0.82218158     0.03060
C4777       C  0.09404853  0.33196217  0.71590605     0.37710
C4778       C  0.08609682  0.32765201  0.88816490     0.37700
C4779       C  0.08068625  0.29537450  0.84309349     0.36130
C4780       C  0.10359145  0.36587377  0.76196096     0.36130
N4781       N  0.07653546  0.28129733  0.85981602    -0.38690
N4782       N  0.10878538  0.38030799  0.74545501    -0.38690
N4783       N  0.08344557  0.32561113  0.92287218    -0.38140
N4784       N  0.09429781  0.33250336  0.68071758    -0.38140
C4785       C  0.12080696  0.34814979  0.55999320    -0.04810
C4786       C  0.10454561  0.33052215  0.54552495    -0.01920
C4787       C  0.10026927  0.31241945  0.55981402     0.03070
C4788       C  0.11081556  0.31171638  0.59292058    -0.04800
C4789       C  0.12418134  0.32971541  0.61291599    -0.01910
C4790       C  0.12981181  0.34773141  0.59533808     0.03060
C4791       C  0.09092966  0.33163757  0.02051913     0.37710
C4792       C  0.13019164  0.33036953  0.65397889     0.37700
C4793       C  0.14425686  0.36596440  0.61480623     0.36130
C4794       C  0.08527848  0.29472956  0.53947848     0.36130
N4795       N  0.15558606  0.38031487  0.63121814    -0.38690
N4796       N  0.07333606  0.28064787  0.52305790    -0.38690
N4797       N  0.13484649  0.33254248  0.68759613    -0.38140
N4798       N  0.07951116  0.33277372  0.00296080    -0.38140
C4799       C  0.19444723  0.33986482  0.93013024    -0.04810
C4800       C  0.18562278  0.33906067  0.89351013    -0.01920
C4801       C  0.16542649  0.33068385  0.89330827     0.03070
C4802       C  0.15554691  0.32771672  0.93093397    -0.04800
C4803       C  0.16426249  0.32820397  0.96756659    -0.01910
C4804       C  0.18444153  0.33660301  0.96763920     0.03060
C4805       C  0.19756180  0.34620742  0.85669985     0.37710
C4806       C  0.15308187  0.32358237  0.00525454     0.37700
C4807       C  0.19465482  0.34032415  0.00576332     0.36130
C4808       C  0.15557097  0.32884394  0.85558003     0.36130
N4809       N  0.20306705  0.34345017  0.03581291    -0.38690
N4810       N  0.14701573  0.32752289  0.82675048    -0.38690
N4811       N  0.14362469  0.31972871  0.53461329    -0.38140
N4812       N  0.20739533  0.35237523  0.82773201    -0.38140
C4813       C  0.07890641  0.50958942  0.60243004    -0.04810
C4814       C  0.06539409  0.51438486  0.61541394    -0.01920
C4815       C  0.07063354  0.53368078  0.61262018     0.03070
C4816       C  0.09006399  0.54918812  0.61744572    -0.04800
C4817       C  0.10455070  0.54486422  0.61166312    -0.01910
C4818       C  0.09897174  0.52557455  0.59964111     0.03060
C4819       C  0.04637861  0.49985931  0.63291088     0.37710
C4820       C  0.12499675  0.56024553  0.61723701     0.37700
C4821       C  0.11384900  0.52204965  0.58795510     0.36130
C4822       C  0.05659540  0.53802513  0.60161202     0.36130
N4823       N  0.12575503  0.51922507  0.57852769    -0.38690
N4824       N  0.04655801  0.54277579  0.59072484    -0.38690
N4825       N  0.14136534  0.57258122  0.62172165    -0.38140
N4826       N  0.03153557  0.48768879  0.64725959    -0.38140
C4827       C  0.09105093  0.55851767  0.84647685    -0.04810
C4828       C  0.09327618  0.55984543  0.88890357    -0.01920
C4829       C  0.09422933  0.54556082  0.91033624     0.03070
C4830       C  0.09038467  0.52838221  0.88993377    -0.04800
C4831       C  0.09267126  0.52951977  0.84714809    -0.01910
C4832       C  0.09410438  0.54519331  0.82592241     0.03060
C4833       C  0.09297857  0.57503335  0.91069640     0.37710
C4834       C  0.09375406  0.51489926  0.82493371     0.37700
C4835       C  0.09897579  0.54775202  0.78300979     0.36130
C4836       C  0.09806590  0.54818046  0.95366713     0.36130
N4837       N  0.10346003  0.54961649  0.74894718    -0.38690
N4838       N  0.10110829  0.55028968  0.98822270    -0.38690
N4839       N  0.09492605  0.50338294  0.80720385    -0.38140
N4840       N  0.09269415  0.58714129  0.92810025    -0.38140
C4841       C  0.11728935  0.42303033  0.96064344    -0.04810
C4842       C  0.09689485  0.41263219  0.95418515    -0.01920
C4843       C  0.08632156  0.42069489  0.96648696     0.03070
C4844       C  0.09611956  0.43931017  0.98500410    -0.04800
C4845       C  0.11648568  0.44960897  0.99200323    -0.01910
C4846       C  0.12703075  0.44140185  0.98009652     0.03060
C4847       C  0.08667321  0.39333610  0.93603212     0.37710
C4848       C  0.12668849  0.46891681  0.01000360     0.37700
C4849       C  0.14793914  0.45183855  0.98778565     0.36130
C4850       C  0.06524850  0.40979884  0.96015479     0.36130
N4851       N  0.16461937  0.46015624  0.99388208    -0.38690
N4852       N  0.04845713  0.40114390  0.95513220    -0.38690
N4853       N  0.13482433  0.48429132  0.52437305    -0.38140
N4854       N  0.07850246  0.37793815  0.92164595    -0.38140
C4855       C  0.02878075  0.50849737  0.52380246    -0.04810
C4856       C  0.03504502  0.52497613  0.99997732    -0.01920
C4857       C  0.02709705  0.53560876  0.00774880     0.03070
C4858       C  0.00978500  0.52678880  0.53184563    -0.04800
C4859       C  0.00462450  0.51150728  0.55855952    -0.01910
C4860       C  0.01382484  0.50178221  0.55373292     0.03060
C4861       C  0.04637571  0.52880916  0.96274353     0.37710
C4862       C  0.98989351  0.50575192  0.59046550     0.37700
C4863       C  0.00584246  0.48345139  0.57495900     0.36130
C4864       C  0.03546339  0.55420316  0.98716504     0.36130
N4865       N  0.99888517  0.46864753  0.59138912    -0.38690
N4866       N  0.04219467  0.56896637  0.97070098    -0.38690
N4867       N  0.97887907  0.50131557  0.61738529    -0.38140
N4868       N  0.05380208  0.53112742  0.93116971    -0.38140
C4869       C  0.01762108  0.41770219  0.61048838    -0.04810
C4870       C  0.99708203  0.40517459  0.60293070    -0.01920
C4871       C  0.98287749  0.40128485  0.63395291     0.03070
C4872       C  0.98905846  0.40899425  0.67343847    -0.04800
C4873       C  0.00919874  0.41703278  0.68270651    -0.01910
C4874       C  0.02329181  0.42124246  0.65141256     0.03060
C4875       C  0.99081364  0.39909162  0.56142181     0.37710
C4876       C  0.01609503  0.42330705  0.72380044     0.37700
C4877       C  0.04406636  0.43201557  0.66056314     0.36130
C4878       C  0.96228499  0.39127417  0.62402871     0.36130
N4879       N  0.06065614  0.44066363  0.66779363    -0.38690
N4880       N  0.94581244  0.38324213  0.61613720    -0.38690
N4881       N  0.02204729  0.42881446  0.75615524    -0.38140
N4882       N  0.98584633  0.39431732  0.52822785    -0.38140
C4883       C  0.01664793  0.44037415  0.91364862    -0.04810
C4884       C  0.01176200  0.42847955  0.87846216    -0.01920
C4885       C  0.99219740  0.41795783  0.86374471     0.03070
C4886       C  0.97735722  0.41841828  0.88530689    -0.04800
C4887       C  0.98115187  0.42604992  0.92462280    -0.01910
C4888       C  0.00072364  0.43813944  0.93771015     0.03060
C4889       C  0.02699875  0.42836328  0.85553795     0.37710
C4890       C  0.96485627  0.42293195  0.95004361     0.37700
C4891       C  0.00359524  0.44891427  0.97474075     0.36130
C4892       C  0.98731339  0.40685184  0.82639050     0.36130
N4893       N  0.00418142  0.45675903  0.00458767    -0.38690
N4894       N  0.98338431  0.39768891  0.79690203    -0.38690
N4895       N  0.95189855  0.42045135  0.97023686    -0.38140
N4896       N  0.03926536  0.42826807  0.83761018    -0.38140
loop_ 
_geom_bond_atom_site_label_1 
_geom_bond_atom_site_label_2 
_geom_bond_distance 
_geom_bond_site_symmetry_2 
_ccdc_geom_bond_type 
O1           Ni7   1.930       .  S
O1           C22   1.284       .  A
O2          Ni25   1.839       .  S
O2         C2459   1.241       .  A
O3           Ni7   1.883       .  S
O3          Ni25   1.868       .  S
O3        Ni2467   1.934       .  S
O3           H26   0.967       .  S
C4           O21   1.314       .  A
C4           O13   1.268       .  A
C4         C2421   1.504       .  S
O5          Ni24   1.870       .  S
O5           C11   1.245       .  A
O6          Ni24   1.906       .  S
O6            C8   1.257       .  A
Ni7          O10   2.007       .  S
Ni7          O12   1.948       .  S
C8           O18   1.279       .  A
C8         C2365   1.543       .  S
O9          Ni25   1.874       .  S
O9           C15   1.262       .  A
O10          C15   1.295       .  A
C11        O2450   1.241   1_554  A
C11        C2407   1.406       .  S
O12          C14   1.269       .  A
O13         Ni24   1.860       .  S
C14          O20   1.259       .  A
C14        C2435   1.515       .  S
C15        C2382   1.527       .  S
H16          O17   0.959       .  S
O17         Ni19   1.854       .  S
O17         Ni24   1.865       .  S
O17       Ni2473   1.896   1_554  S
O18         Ni19   2.004       .  S
Ni19         O23   1.911       .  S
Ni19         O21   2.032       .  S
Ni19       O2451   1.934   1_554  S
O20         Ni25   1.921       .  S
C22        O2471   1.288       .  A
C22        C2396   1.473       .  S
O23        C2470   1.288   1_554  A
Ni25       O2465   1.896       .  S
O27       Ni2481   1.924       .  S
O27          C48   1.283       .  A
O28         Ni51   1.855       .  S
O28          C37   1.267       .  A
O29         Ni51   1.851       .  S
O29         Ni45   1.914       .  S
O29       Ni2481   1.879       .  S
O29          H52   0.966       .  S
C30          O47   1.280       .  A
C30          O39   1.239       .  A
C30        C2326   1.507       .  S
O31         Ni50   1.877       .  S
O31          C37   1.258       .  A
O32         Ni50   1.894       .  S
O32          C34   1.282       .  A
Ni33         O36   1.961       .  S
Ni33         O38   1.945       .  S
Ni33       O2475   1.924   1_554  S
Ni33       O2477   1.878   1_554  S
C34          O44   1.316       .  A
C34        C2298   1.518       .  S
O35       Ni2499   1.933       .  S
O35          C41   1.283   1_556  A
O36          C41   1.287       .  A
C37        C2354   1.422       .  S
O38          C40   1.272       .  A
O39         Ni50   1.873       .  S
C40          O46   1.258       .  A
C40        C2337   1.489       .  S
C41        C2309   1.517       .  S
H42          O43   0.966       .  S
O43         Ni51   1.925       .  S
O43         Ni45   1.855       .  S
O43         Ni50   1.882       .  S
O44         Ni45   2.037       .  S
Ni45         O49   1.910       .  S
Ni45         O47   2.003       .  S
O46       Ni2499   1.895   1_554  S
C48          O49   1.289       .  A
C48        C2393   1.469       .  S
Ni51       O2483   1.934       .  S
Ni51       O2494   1.896       .  S
O53         Ni59   1.904       .  S
O53          C74   1.265       .  A
O54         Ni77   1.948       .  S
O54          C63   1.298       .  A
O55         Ni59   1.880       .  S
O55         Ni77   1.872       .  S
O55         Ni71   1.933       .  S
O55          H78   0.963       .  S
C56          O73   1.240       .  A
C56          O65   1.285       .  A
C56        C2368   1.513       .  S
O57         Ni76   1.912       .  S
O57          C63   1.282       .  A
O58         Ni76   1.893       .  S
O58          C60   1.260       .  A
Ni59         O62   1.920       .  S
Ni59         O64   1.885       .  S
C60          O70   1.292       .  A
C60        C2267   1.514       .  S
O61         Ni77   2.032       .  S
O61          C67   1.315       .  A
O62          C67   1.281       .  A
C63        C2239   1.481       .  S
O64          C66   1.258       .  A
O65         Ni76   2.022       .  S
C66          O72   1.285       .  A
C66        C2379   1.504       .  S
C67        C2253   1.565       .  S
H68          O69   0.966       .  S
O69         Ni77   1.952       .  S
O69         Ni71   1.840       .  S
O69         Ni76   1.914       .  S
O70         Ni71   2.001       .  S
Ni71         O75   1.861       .  S
Ni71         O73   1.892       .  S
O72         Ni77   1.991       .  S
C74          O75   1.244       .  A
C74        C2281   1.427       .  S
O79         Ni85   1.878       .  S
O79         C100   1.247       .  A
O80        Ni103   1.931       .  S
O80          C89   1.293       .  A
O81         Ni85   1.893       .  S
O81        Ni103   1.872       .  S
O81         Ni97   1.933       .  S
O81         H104   0.964       .  S
C82          O99   1.269       .  A
C82          O91   1.290       .  A
C82        C2211   1.543       .  S
O83        Ni102   1.935       .  S
O83          C89   1.282       .  A
O84        Ni102   1.921       .  S
O84          C86   1.268       .  A
Ni85         O88   1.861       .  S
Ni85         O90   1.876       .  S
C86          O96   1.278       .  A
C86        C2183   1.530       .  S
O87        Ni103   2.053       .  S
O87          C93   1.318       .  A
O88          C93   1.264       .  A
C89        C2242   1.491       .  S
O90          C92   1.239       .  A
O91        Ni102   1.994       .  S
C92          O98   1.281       .  A
C92        C2225   1.546       .  S
C93        C2197   1.508       .  S
H94          O95   0.966       .  S
O95        Ni103   1.943       .  S
O95         Ni97   1.870       .  S
O95        Ni102   1.893       .  S
O96         Ni97   1.955       .  S
Ni97        O101   1.859       .  S
Ni97         O99   1.907       .  S
O98        Ni103   2.037       .  S
C100        O101   1.258       .  A
C100       C2172   1.415       .  S
O105      Ni2559   1.896       .  S
O105        C126   1.270       .  A
O106       Ni129   1.889       .  S
O106        C115   1.249       .  A
O107       Ni129   1.848       .  S
O107       Ni123   1.981       .  S
O107      Ni2559   1.920       .  S
O107        H130   0.966       .  S
C108        O125   1.286       .  A
C108        O117   1.261       .  A
C108       C2141   1.512       .  S
O109       Ni128   1.888       .  S
O109        C115   1.260       .  A
O110       Ni128   1.918       .  S
O110        C112   1.285       .  A
Ni111       O114   1.990       .  S
Ni111       O116   1.967       .  S
Ni111      O2553   1.896       .  S
Ni111      O2555   1.920   1_554  S
C112        O122   1.297       .  A
C112       C2085   1.514       .  S
O113      Ni2577   1.919       .  S
O113        C119   1.271   1_556  A
O114        C119   1.292       .  A
C115       C2127   1.448       .  S
O116        C118   1.271       .  A
O117       Ni128   1.884       .  S
C118       O2572   1.265       .  A
C118       C2155   1.541       .  S
C119       C2099   1.503       .  S
H120        O121   0.959       .  S
O121       Ni129   1.979       .  S
O121       Ni123   1.871       .  S
O121       Ni128   1.847       .  S
O122       Ni123   1.977       .  S
Ni123       O127   1.942       .  S
Ni123       O125   1.989       .  S
O124       Ni129   1.954       .  S
O124       C2566   1.265       .  A
C126        O127   1.281       .  A
C126       C2113   1.474       .  S
Ni129      O2561   1.919       .  S
O131       Ni137   1.933       .  S
O131       C2600   1.278       .  A
O132       Ni155   1.851       .  S
O132       C2589   1.246       .  A
O133       Ni137   1.909       .  S
O133       Ni155   1.860       .  S
O133      Ni2597   1.929       .  S
O133        H156   0.965       .  S
C134        O151   1.287       .  A
C134        O143   1.257       .  A
C134       C2043   1.502       .  S
O135       Ni154   1.867       .  S
O135        C141   1.251       .  A
O136       Ni154   1.887       .  S
O136        C138   1.271       .  A
Ni137       O140   1.988       .  S
Ni137       O142   1.902       .  S
C138        O148   1.290       .  A
C138       C2032   1.491       .  S
O139       Ni155   1.899       .  S
O139        C145   1.268       .  A
O140        C145   1.284       .  A
C141       O2580   1.246       .  A
C141       C2071   1.450       .  S
O142        C144   1.264       .  A
O143       Ni154   1.876       .  S
C144        O150   1.270       .  A
C144       C2060   1.478       .  S
C145       C2018   1.510       .  S
H146        O147   0.962       .  S
O147       Ni149   1.900       .  S
O147       Ni154   1.933       .  S
O147      Ni2603   1.958       .  S
O148       Ni149   1.971       .  S
Ni149       O153   1.909       .  S
Ni149       O151   1.988       .  S
Ni149      O2581   1.929       .  S
O150       Ni155   1.940       .  S
C152        O153   1.281   1_556  A
C152       O2579   1.278       .  A
C152       C4564   1.506       .  S
Ni155      O2595   1.959       .  S
O157       Ni163   1.891       .  S
O157        C178   1.264       .  A
O158       Ni181   1.930       .  S
O158        C167   1.288       .  A
O159       Ni163   1.888       .  S
O159       Ni181   1.878       .  S
O159       Ni175   1.930       .  S
O159        H182   0.959       .  S
C160        O177   1.282       .  A
C160        O169   1.287       .  A
C160       C1931   1.511       .  S
O161       Ni180   1.923       .  S
O161        C167   1.277       .  A
O162       Ni180   1.942       .  S
O162        C164   1.271       .  A
Ni163       O166   1.880       .  S
Ni163       O168   1.891       .  S
C164        O174   1.257       .  A
C164       C2001   1.499   1_565  S
O165       Ni181   1.974       .  S
O165        C171   1.272       .  A
O166        C171   1.257       .  A
C167       C1959   1.505       .  S
O168        C170   1.279       .  A
O169       Ni180   1.959       .  S
C170        O176   1.313       .  A
C170       C1945   1.508       .  S
C171       C1987   1.508       .  S
H172        O173   0.967       .  S
O173       Ni181   1.897       .  S
O173       Ni175   1.869       .  S
O173       Ni180   1.885       .  S
O174       Ni175   1.906       .  S
Ni175       O179   1.894       .  S
Ni175       O177   1.919       .  S
O176       Ni181   2.023       .  S
C178        O179   1.265       .  A
C178       C1973   1.484   1_565  S
O183       Ni189   1.902       .  S
O183        C204   1.260       .  A
O184       Ni207   1.926       .  S
O184        C193   1.293       .  A
O185       Ni189   1.857       .  S
O185       Ni207   1.870       .  S
O185       Ni201   1.904       .  S
O185        H208   0.961       .  S
C186        O203   1.260       .  A
C186        O195   1.286       .  A
C186       C2088   1.501       .  S
O187       Ni206   1.936       .  S
O187        C193   1.286       .  A
O188       Ni206   1.931       .  S
O188        C190   1.271       .  A
Ni189       O192   1.877       .  S
Ni189       O194   1.904       .  S
C190        O200   1.272       .  A
C190       C1892   1.505       .  S
O191       Ni207   2.028       .  S
O191        C197   1.309       .  A
O192        C197   1.264       .  A
C193       C1962   1.488       .  S
O194        C196   1.252       .  A
O195       Ni206   1.997       .  S
C196        O202   1.287       .  A
C196       C2102   1.534       .  S
C197       C1903   1.497       .  S
H198        O199   0.967       .  S
O199       Ni207   1.941       .  S
O199       Ni201   1.858       .  S
O199       Ni206   1.901       .  S
O200       Ni201   1.951       .  S
Ni201       O205   1.836       .  S
Ni201       O203   1.889       .  S
O202       Ni207   2.028       .  S
C204        O205   1.247       .  A
C204       C1920   1.426       .  S
O209       Ni215   1.898       .  S
O209        C230   1.270       .  A
O210       Ni233   1.888       .  S
O210       C2667   1.246       .  A
O211       Ni215   1.910       .  S
O211       Ni233   1.878       .  S
O211      Ni2675   1.980       .  S
O211        H234   0.966       .  S
C212        O229   1.314       .  A
C212        O221   1.277       .  A
C212       C1847   1.529       .  S
O213       Ni232   1.882       .  S
O213        C219   1.248   1_554  A
O214       Ni232   1.891       .  S
O214        C216   1.250       .  A
Ni215       O218   1.982       .  S
Ni215       O220   1.941       .  S
C216        O226   1.267       .  A
C216       C1934   1.487       .  S
O217       Ni233   1.878       .  S
O217        C223   1.255       .  A
O218        C223   1.286       .  A
C219       O2658   1.246       .  A
C219       C1878   1.436   1_556  S
O220        C222   1.263       .  A
O221       Ni232   1.878       .  S
C222        O228   1.272       .  A
C222       C1861   1.517       .  S
C223       C1948   1.499       .  S
H224        O225   0.960   1_556  S
O225       Ni227   1.893       .  S
O225       Ni232   1.894       .  S
O225      Ni2681   1.931   1_554  S
O226       Ni227   1.963       .  S
Ni227       O231   1.941   1_554  S
Ni227       O229   2.033       .  S
Ni227      O2659   1.980   1_554  S
O228       Ni233   1.960       .  S
C230       O2679   1.284       .  A
C230       C1833   1.477       .  S
O231       C2678   1.284       .  A
Ni233      O2673   1.931       .  S
O235       Ni241   1.960       .  S
O235        C256   1.289       .  A
O236       Ni259   1.835       .  S
O236        C245   1.248       .  A
O237       Ni241   1.903       .  S
O237       Ni259   1.862       .  S
O237       Ni253   1.921       .  S
O237        H260   0.966       .  S
C238        O255   1.273       .  A
C238        O247   1.245       .  A
C238       C1791   1.524       .  S
O239       Ni258   1.825       .  S
O239        C245   1.263       .  A
O240       Ni258   1.861       .  S
O240        C242   1.262       .  A
Ni241      O2692   2.015       .  S
Ni241      O2694   1.935       .  S
C242        O252   1.312       .  A
C242       C2214   1.505       .  S
O243      Ni2707   1.894       .  S
O243        C249   1.266   1_556  A
O244      Ni2689   2.015       .  S
O244        C249   1.292       .  A
C245       C1819   1.398       .  S
O246      Ni2689   1.935       .  S
O246        C248   1.272       .  A
O247       Ni258   1.872       .  S
C248       O2702   1.272       .  A
C248       C1808   1.520       .  S
C249       C2228   1.535       .  S
H250        O251   0.960       .  S
O251       Ni259   1.925       .  S
O251       Ni253   1.850       .  S
O251       Ni258   1.896       .  S
O252       Ni253   2.046       .  S
Ni253       O257   1.874       .  S
Ni253       O255   1.991       .  S
O254       Ni259   1.947       .  S
O254       C2696   1.272       .  A
C256        O257   1.275       .  A
C256       C1836   1.500       .  S
Ni259      O2691   1.894       .  S
O261       Ni267   1.919       .  S
O261        C282   1.262       .  A
O262       Ni285   1.951       .  S
O262        C271   1.286       .  A
O263       Ni267   1.904       .  S
O263       Ni285   1.884       .  S
O263       Ni279   1.912       .  S
O263        H286   0.961       .  S
C264        O281   1.259       .  A
C264        O273   1.285       .  A
C264       C2295   1.514       .  S
O265       Ni284   1.890       .  S
O265        C271   1.271       .  A
O266       Ni284   1.930       .  S
O266        C268   1.265       .  A
Ni267       O270   1.885       .  S
Ni267       O272   1.901       .  S
C268        O278   1.270       .  A
C268       C1777   1.518       .  S
O269       Ni285   2.020       .  S
O269        C275   1.309       .  A
O270        C275   1.275       .  A
C271       C1735   1.482       .  S
O272        C274   1.256       .  A
O273       Ni284   1.982       .  S
C274        O280   1.274       .  A
C274       C2312   1.502       .  S
C275       C1763   1.510       .  S
H276        O277   0.966       .  S
O277       Ni285   1.988       .  S
O277       Ni279   1.871       .  S
O277       Ni284   1.923       .  S
O278       Ni279   1.951       .  S
Ni279       O283   1.843       .  S
Ni279       O281   1.896       .  S
O280       Ni285   1.971       .  S
C282        O283   1.251       .  A
C282       C1752   1.461       .  S
O287       Ni293   1.877       .  S
O287        C308   1.263       .  A
O288       Ni311   1.933       .  S
O288        C297   1.289       .  A
O289       Ni293   1.888       .  S
O289       Ni311   1.903       .  S
O289       Ni305   1.962       .  S
O289        H312   0.957       .  S
C290        O307   1.259       .  A
C290        O299   1.293       .  A
C290       C2029   1.524       .  S
O291       Ni310   1.935       .  S
O291        C297   1.279       .  A
O292       Ni310   1.895       .  S
O292        C294   1.261       .  A
Ni293       O296   1.899       .  S
Ni293       O298   1.890       .  S
C294        O304   1.278       .  A
C294       C1724   1.490       .  S
O295       Ni311   2.018       .  S
O295        C301   1.303       .  A
O296        C301   1.271       .  A
C297       C1738   1.485       .  S
O298        C300   1.267       .  A
O299       Ni310   2.003       .  S
C300        O306   1.274       .  A
C300       C2015   1.509       .  S
C301       C1707   1.516       .  S
H302        O303   0.966       .  S
O303       Ni311   1.927       .  S
O303       Ni305   1.859       .  S
O303       Ni310   1.880       .  S
O304       Ni305   1.964       .  S
Ni305       O309   1.897       .  S
Ni305       O307   1.874       .  S
O306       Ni311   1.965       .  S
C308        O309   1.240       .  A
C308       C1693   1.487       .  S
O313       Ni319   1.954       .  S
O313        C334   1.285       .  A
O314       Ni337   1.911       .  S
O314        C323   1.273       .  A
O315       Ni319   1.884       .  S
O315       Ni337   1.885       .  S
O315       Ni331   1.935       .  S
O315        H338   0.966       .  S
C316        O333   1.312       .  A
C316        O325   1.274       .  A
C316       C1609   1.510       .  S
O317       Ni336   1.897       .  S
O317        C323   1.249       .  A
O318       Ni336   1.900       .  S
O318        C320   1.257       .  A
Ni319       O322   1.985       .  S
Ni319       O324   1.918       .  S
C320        O330   1.270       .  A
C320       C1651   1.513       .  S
O321       Ni337   1.874       .  S
O321        C327   1.264       .  A
O322        C327   1.289       .  A
C323       C1637   1.448       .  S
O324        C326   1.274       .  A
O325       Ni336   1.894       .  S
C326        O332   1.281       .  A
C326       C1626   1.514       .  S
C327       C1668   1.521       .  S
H328        O329   0.966       .  S
O329       Ni337   1.902       .  S
O329       Ni331   1.875       .  S
O329       Ni336   1.869       .  S
O330       Ni331   1.979       .  S
Ni331       O335   1.915       .  S
Ni331       O333   2.031       .  S
O332       Ni337   1.957       .  S
C334        O335   1.285       .  A
C334       C1679   1.497       .  S
O339       Ni345   1.934       .  S
O339        C360   1.283       .  A
O340       Ni363   1.874       .  S
O340        C349   1.242       .  A
O341       Ni345   1.899       .  S
O341       Ni363   1.871       .  S
O341       Ni357   1.942       .  S
O341        H364   0.966       .  S
C342        O359   1.300       .  A
C342        O351   1.276       .  A
C342       C2323   1.508       .  S
O343       Ni362   1.890       .  S
O343        C349   1.265       .  A
O344       Ni362   1.893       .  S
O344        C346   1.259       .  A
Ni345       O348   1.997       .  S
Ni345       O350   1.911       .  S
C346        O356   1.289       .  A
C346       C1595   1.505       .  S
O347       Ni363   1.885       .  S
O347        C353   1.253       .  A
O348        C353   1.287       .  A
C349       C1749   1.470       .  S
O350        C352   1.268       .  A
O351       Ni362   1.905       .  S
C352        O358   1.289       .  A
C352       C2340   1.522       .  S
C353       C1584   1.520       .  S
H354        O355   0.952       .  S
O355       Ni363   1.942       .  S
O355       Ni357   1.859       .  S
O355       Ni362   1.883       .  S
O356       Ni357   1.990       .  S
Ni357       O361   1.929       .  S
Ni357       O359   1.999       .  S
O358       Ni363   1.997       .  S
C360        O361   1.289       .  A
C360       C1682   1.496       .  S
O365       Ni371   1.876       .  S
O365        C386   1.258       .  A
O366       Ni389   1.924       .  S
O366        C375   1.292       .  A
O367       Ni371   1.889       .  S
O367       Ni389   1.866       .  S
O367       Ni383   1.927       .  S
O367        H390   0.966       .  S
C368        O385   1.281       .  A
C368        O377   1.291       .  A
C368       C1598   1.526       .  S
O369       Ni388   1.941       .  S
O369        C375   1.287       .  A
O370       Ni388   1.945       .  S
O370        C372   1.271       .  A
Ni371       O374   1.873       .  S
Ni371       O376   1.892       .  S
C372        O382   1.257       .  A
C372       C1780   1.486       .  S
O373       Ni389   1.997       .  S
O373        C379   1.278       .  A
O374        C379   1.242       .  A
C375       C1567   1.500       .  S
O376        C378   1.279       .  A
O377       Ni388   1.980       .  S
C378        O384   1.319       .  A
C378       C4029   1.522       .  S
C379       C4214   1.508       .  S
H380        O381   0.966       .  S
O381       Ni389   1.909       .  S
O381       Ni383   1.860       .  S
O381       Ni388   1.880       .  S
O382       Ni383   1.893       .  S
Ni383       O387   1.864       .  S
Ni383       O385   1.929       .  S
O384       Ni389   2.043       .  S
C386        O387   1.268       .  A
C386       C2351   1.419       .  S
O391       Ni397   1.879       .  S
O391        C412   1.258       .  A
O392       Ni415   1.922       .  S
O392        C401   1.286       .  A
O393       Ni397   1.920       .  S
O393       Ni415   1.892       .  S
O393       Ni409   1.927       .  S
O393        H416   0.966       .  S
C394        O411   1.262       .  A
C394        O403   1.286       .  A
C394       C1500   1.513       .  S
O395       Ni414   1.947       .  S
O395        C401   1.285       .  A
O396       Ni414   1.928       .  S
O396        C398   1.272       .  A
Ni397       O400   1.863       .  S
Ni397       O402   1.889       .  S
C398        O408   1.272       .  A
C398       C1539   1.527       .  S
O399       Ni415   2.008       .  S
O399        C405   1.300       .  A
O400        C405   1.260       .  A
C401       C1570   1.496       .  S
O402        C404   1.258       .  A
O403       Ni414   1.983       .  S
C404        O410   1.279       .  A
C404       C1511   1.498       .  S
C405       C1553   1.497       .  S
H406        O407   0.965       .  S
O407       Ni415   1.931       .  S
O407       Ni409   1.874       .  S
O407       Ni414   1.901       .  S
O408       Ni409   1.934       .  S
Ni409       O413   1.862       .  S
Ni409       O411   1.877       .  S
O410       Ni415   1.974       .  S
C412        O413   1.252       .  A
C412       C1525   1.445       .  S
O417       Ni423   1.871       .  S
O417        C438   1.242       .  A
O418       Ni441   1.941       .  S
O418        C427   1.290       .  A
O419       Ni423   1.911       .  S
O419       Ni441   1.868       .  S
O419       Ni435   1.904       .  S
O419        H442   0.960       .  S
C420        O437   1.252       .  A
C420        O429   1.287       .  A
C420       C1416   1.514       .  S
O421       Ni440   1.904       .  S
O421        C427   1.279       .  A
O422       Ni440   1.903       .  S
O422        C424   1.256       .  A
Ni423       O426   1.853       .  S
Ni423       O428   1.900       .  S
C424        O434   1.271       .  A
C424       C1455   1.487       .  S
O425       Ni441   2.077       .  S
O425        C431   1.328       .  A
O426        C431   1.265       .  A
C427       C1441   1.469       .  S
O428        C430   1.256       .  A
O429       Ni440   2.016       .  S
C430        O436   1.266       .  A
C430       C1430   1.504       .  S
C431       C1469   1.526       .  S
H432        O433   0.966       .  S
O433       Ni441   2.001       .  S
O433       Ni435   1.861       .  S
O433       Ni440   1.932       .  S
O434       Ni435   1.953       .  S
Ni435       O439   1.850       .  S
Ni435       O437   1.877       .  S
O436       Ni441   1.963       .  S
C438        O439   1.238       .  A
C438       C1483   1.409       .  S
O443       Ni449   1.890       .  S
O443        C464   1.266       .  A
O444       Ni467   1.914       .  S
O444        C453   1.294       .  A
O445       Ni449   1.860       .  S
O445       Ni467   1.842       .  S
O445       Ni461   1.949       .  S
O445        H468   0.966       .  S
C446        O463   1.282       .  A
C446        O455   1.302       .  A
C446       C1385   1.533       .  S
O447       Ni466   1.927       .  S
O447        C453   1.281       .  A
O448       Ni466   1.956       .  S
O448        C450   1.265       .  A
Ni449       O454   1.901       .  S
Ni449      O2900   1.895       .  S
C450        O460   1.252       .  A
C450       C2186   1.514       .  S
O451       Ni467   2.002       .  S
O451       C2905   1.286       .  A
O452      Ni2897   1.895   1_554  S
O452        C457   1.254       .  A
C453       C1444   1.477       .  S
O454        C456   1.282       .  A
O455       Ni466   2.000       .  S
C456        O462   1.319       .  A
C456       C3847   1.535       .  S
C457       O2899   1.286   1_554  A
C457       C2200   1.518       .  S
H458        O459   0.967       .  S
O459       Ni467   1.927       .  S
O459       Ni461   1.825       .  S
O459       Ni466   1.865       .  S
O460       Ni461   1.925       .  S
Ni461       O465   1.827       .  S
Ni461       O463   1.915       .  S
O462       Ni467   2.049       .  S
C464        O465   1.262       .  A
C464       C1822   1.471       .  S
O469       Ni475   1.898       .  S
O469        C490   1.271       .  A
O470       Ni493   1.867       .  S
O470        C479   1.254       .  A
O471       Ni475   1.905       .  S
O471       Ni493   1.881       .  S
O471       Ni487   1.972       .  S
O471        H494   0.965       .  S
C472        O489   1.307       .  A
C472        O481   1.274       .  A
C472       C3791   1.519       .  S
O473       Ni492   1.930       .  S
O473        C479   1.267       .  A
O474       Ni492   1.906       .  S
O474        C476   1.258       .  A
Ni475       O478   1.986       .  S
Ni475       O480   1.942       .  S
C476        O486   1.265       .  A
C476       C1497   1.490   1_554  S
O477       Ni493   1.899       .  S
O477        C483   1.262       .  A
O478        C483   1.288       .  A
C479       C1371   1.481       .  S
O480        C482   1.266       .  A
O481       Ni492   1.898       .  S
C482        O488   1.267       .  A
C482       C1357   1.521       .  S
C483       C1514   1.528       .  S
H484        O485   0.965       .  S
O485       Ni493   1.907       .  S
O485       Ni487   1.909       .  S
O485       Ni492   1.909       .  S
O486       Ni487   1.941       .  S
Ni487       O491   1.955       .  S
Ni487       O489   2.020       .  S
O488       Ni493   1.922       .  S
C490        O491   1.291       .  A
C490       C1329   1.496       .  S
O495       Ni501   1.938       .  S
O495        C516   1.285       .  A
O496       Ni519   1.822       .  S
O496        C505   1.248       .  A
O497       Ni501   1.905       .  S
O497       Ni519   1.854       .  S
O497       Ni513   1.937       .  S
O497        H520   0.966       .  S
C498        O515   1.282       .  A
C498        O507   1.254       .  A
C498       C1794   1.531       .  S
O499       Ni518   1.878       .  S
O499        C505   1.261       .  A
O500       Ni518   1.892       .  S
O500        C502   1.277       .  A
Ni501       O504   2.002       .  S
Ni501       O506   1.920       .  S
C502        O512   1.319       .  A
C502       C1388   1.518       .  S
O503       Ni519   1.911       .  S
O503        C509   1.268       .  A
O504        C509   1.287       .  A
C505       C2169   1.414       .  S
O506        C508   1.268       .  A
O507       Ni518   1.887       .  S
C508        O514   1.276       .  A
C508       C1805   1.492       .  S
C509       C1402   1.530       .  S
H510        O511   0.964       .  S
O511       Ni519   1.928       .  S
O511       Ni513   1.856       .  S
O511       Ni518   1.901       .  S
O512       Ni513   2.046       .  S
Ni513       O517   1.918       .  S
Ni513       O515   1.996       .  S
O514       Ni519   1.950       .  S
C516        O517   1.290       .  A
C516       C1332   1.511       .  S
O521       Ni527   1.960       .  S
O521        C542   1.294       .  A
O522       Ni545   1.859       .  S
O522        C531   1.234       .  A
O523       Ni527   1.883       .  S
O523       Ni545   1.848       .  S
O523       Ni539   1.931       .  S
O523        H546   0.966       .  S
C524        O541   1.316       .  A
C524        O533   1.269       .  A
C524       C3749   1.516       .  S
O525       Ni544   1.857       .  S
O525        C531   1.250       .  A
O526       Ni544   1.893       .  S
O526        C528   1.253       .  A
Ni527       O530   2.038       .  S
Ni527       O532   1.961       .  S
C528        O538   1.274       .  A
C528       C1413   1.531       .  S
O529       Ni545   1.843       .  S
O529        C535   1.252       .  A
O530        C535   1.302       .  A
C531       C1287   1.421       .  S
O532        C534   1.271       .  A
O533       Ni544   1.867       .  S
C534        O540   1.260       .  A
C534       C1318   1.529       .  S
C535       C1427   1.528       .  S
H536        O537   0.957       .  S
O537       Ni545   1.925       .  S
O537       Ni539   1.861       .  S
O537       Ni544   1.878       .  S
O538       Ni539   1.991       .  S
Ni539       O543   1.902       .  S
Ni539       O541   2.045       .  S
O540       Ni545   1.922       .  S
C542        O543   1.289       .  A
C542       C1273   1.480       .  S
O547       Ni553   1.952       .  S
O547        C568   1.287       .  A
O548       Ni571   1.873       .  S
O548        C557   1.259       .  A
O549       Ni553   1.898       .  S
O549       Ni571   1.865       .  S
O549       Ni565   1.915       .  S
O549        H572   0.966       .  S
C550        O567   1.276       .  A
C550        O559   1.253       .  A
C550       C2144   1.534       .  S
O551       Ni570   1.870       .  S
O551        C557   1.257       .  A
O552       Ni570   1.876       .  S
O552        C554   1.271       .  A
Ni553       O556   1.993       .  S
Ni553       O558   1.935       .  S
C554        O564   1.308       .  A
C554       C1259   1.490       .  S
O555       Ni571   1.892       .  S
O555        C561   1.268       .  A
O556        C561   1.290       .  A
C557       C1917   1.430       .  S
O558        C560   1.272       .  A
O559       Ni570   1.879       .  S
C560        O566   1.274       .  A
C560       C2158   1.519       .  S
C561       C1245   1.535       .  S
H562        O563   0.965       .  S
O563       Ni571   1.923       .  S
O563       Ni565   1.878       .  S
O563       Ni570   1.895       .  S
O564       Ni565   2.020       .  S
Ni565       O569   1.900       .  S
Ni565       O567   1.997       .  S
O566       Ni571   1.930       .  S
C568        O569   1.282       .  A
C568       C1276   1.479       .  S
O573       Ni579   1.842       .  S
O573        C594   1.251       .  A
O574       Ni597   1.900       .  S
O574        C583   1.283       .  A
O575       Ni579   1.920       .  S
O575       Ni597   1.857       .  S
O575       Ni591   1.935       .  S
O575        H598   0.956       .  S
C576        O593   1.264       .  A
C576        O585   1.291       .  A
C576       C1654   1.533       .  S
O577       Ni596   1.946       .  S
O577        C583   1.285       .  A
O578       Ni596   1.914       .  S
O578        C580   1.267       .  A
Ni579       O582   1.849       .  S
Ni579       O584   1.889       .  S
C580        O590   1.267       .  A
C580       C1206   1.507       .  S
O581       Ni597   2.043       .  S
O581        C587   1.313       .  A
O582        C587   1.259       .  A
C583       C1231   1.486       .  S
O584        C586   1.258       .  A
O585       Ni596   1.999       .  S
C586        O592   1.271       .  A
C586       C1665   1.489       .  S
C587       C1217   1.508       .  S
H588        O589   0.965       .  S
O589       Ni597   1.950       .  S
O589       Ni591   1.879       .  S
O589       Ni596   1.896       .  S
O590       Ni591   1.925       .  S
Ni591       O595   1.882       .  S
Ni591       O593   1.890       .  S
O592       Ni597   1.955       .  S
C594        O595   1.251       .  A
C594       C1189   1.452       .  S
O599       Ni605   1.896       .  S
O599        C620   1.259       .  A
O600       Ni623   1.900       .  S
O600        C609   1.280       .  A
O601       Ni605   1.861       .  S
O601       Ni623   1.855       .  S
O601       Ni617   1.923       .  S
O601        H624   0.961       .  S
C602        O619   1.253       .  A
C602        O611   1.291       .  A
C602       C1262   1.527       .  S
O603       Ni622   1.940       .  S
O603        C609   1.284       .  A
O604       Ni622   1.921       .  S
O604        C606   1.267       .  A
Ni605       O608   1.899       .  S
Ni605       O610   1.881       .  S
C606        O616   1.280       .  A
C606       C1889   1.509       .  S
O607       Ni623   2.019       .  S
O607        C613   1.310       .  A
O608        C613   1.281       .  A
C609       C1234   1.476       .  S
O610        C612   1.248       .  A
O611       Ni622   2.008       .  S
C612        O618   1.275       .  A
C612       C3696   1.494       .  S
C613       C4354   1.523       .  S
H614        O615   0.965       .  S
O615       Ni623   1.951       .  S
O615       Ni617   1.882       .  S
O615       Ni622   1.900       .  S
O616       Ni617   1.960       .  S
Ni617       O621   1.886       .  S
Ni617       O619   1.865       .  S
O618       Ni623   1.978       .  S
C620        O621   1.250       .  A
C620       C2130   1.444       .  S
O625       Ni631   1.958       .  S
O625        C646   1.290       .  A
O626       Ni649   1.859       .  S
O626        C635   1.261       .  A
O627       Ni631   1.893       .  S
O627       Ni649   1.871       .  S
O627       Ni643   1.928       .  S
O627        H650   0.966       .  S
C628        O645   1.311       .  A
C628        O637   1.273       .  A
C628       C1850   1.495       .  S
O629       Ni648   1.907       .  S
O629        C635   1.260       .  A
O630       Ni648   1.896       .  S
O630        C632   1.258       .  A
Ni631       O634   1.995       .  S
Ni631       O636   1.923       .  S
C632        O642   1.280       .  A
C632       C1147   1.519       .  S
O633       Ni649   1.872       .  S
O633        C639   1.255       .  A
O634        C639   1.287       .  A
C635       C1976   1.441       .  S
O636        C638   1.274       .  A
O637       Ni648   1.872       .  S
C638        O644   1.277       .  A
C638       C1864   1.506       .  S
C639       C1161   1.488       .  S
H640        O641   0.963       .  S
O641       Ni649   1.870       .  S
O641       Ni643   1.868       .  S
O641       Ni648   1.881       .  S
O642       Ni643   1.994       .  S
Ni643       O647   1.936       .  S
Ni643       O645   2.015       .  S
O644       Ni649   1.956       .  S
C646        O647   1.293       .  A
C646       C1175   1.516       .  S
O651       Ni657   1.957       .  S
O651        C672   1.290       .  A
O652       Ni675   1.858       .  S
O652        C661   1.239       .  A
O653       Ni657   1.904       .  S
O653       Ni675   1.856       .  S
O653       Ni669   1.927       .  S
O653        H676   0.966       .  S
C654        O671   1.295       .  A
C654        O663   1.256       .  A
C654       C1346   1.504       .  S
O655       Ni674   1.861       .  S
O655        C661   1.250       .  A
O656       Ni674   1.886       .  S
O656        C658   1.271       .  A
Ni657       O660   2.013       .  S
Ni657       O662   1.932       .  S
C658        O668   1.290       .  A
C658       C1119   1.491       .  S
O659       Ni675   1.874       .  S
O659        C665   1.254       .  A
O660        C665   1.292       .  A
C661       C1528   1.444       .  S
O662        C664   1.272       .  A
O663       Ni674   1.862       .  S
C664        O670   1.270       .  A
C664       C1360   1.518       .  S
C665       C1133   1.528       .  S
H666        O667   0.963       .  S
O667       Ni675   1.953       .  S
O667       Ni669   1.908       .  S
O667       Ni674   1.922       .  S
O668       Ni669   1.970       .  S
Ni669       O673   1.940       .  S
Ni669       O671   2.004       .  S
O670       Ni675   1.942       .  S
C672        O673   1.294       .  A
C672       C1178   1.515       .  S
O677      Ni3131   1.884       .  S
O677        C698   1.259       .  A
O678       Ni701   1.910       .  S
O678        C687   1.284       .  A
O679       Ni701   1.881   1_556  S
O679       Ni695   1.916   1_556  S
O679      Ni3131   1.898       .  S
O679        H702   0.961   1_556  S
C680        O697   1.265       .  A
C680        O689   1.286       .  A
C680       C1080   1.502       .  S
O681       Ni700   1.948       .  S
O681        C687   1.285       .  A
O682       Ni700   1.913       .  S
O682        C684   1.270       .  A
Ni683       O686   1.871       .  S
Ni683       O688   1.901       .  S
Ni683      O3125   1.884       .  S
Ni683      O3127   1.898       .  S
C684        O694   1.278       .  A
C684       C1721   1.503       .  S
O685      Ni3149   2.018       .  S
O685        C691   1.303       .  A
O686        C691   1.260       .  A
C687       C1105   1.483       .  S
O688        C690   1.262       .  A
O689       Ni700   1.991       .  S
C690        O696   1.276       .  A
C690       C1094   1.498       .  S
C691       C1710   1.501       .  S
H692        O693   0.965       .  S
O693       Ni701   1.934       .  S
O693       Ni695   1.866       .  S
O693       Ni700   1.896       .  S
O694       Ni695   1.957       .  S
Ni695       O699   1.866       .  S
Ni695       O697   1.885       .  S
O696      Ni3149   1.964       .  S
C698        O699   1.256   1_556  A
C698       C2074   1.451       .  S
Ni701      O3133   2.018   1_554  S
Ni701      O3144   1.964   1_554  S
O703       Ni709   1.869       .  S
O703        C724   1.253       .  A
O704       Ni727   1.918       .  S
O704        C713   1.282       .  A
O705       Ni709   1.919       .  S
O705       Ni727   1.897       .  S
O705       Ni721   1.948       .  S
O705        H728   0.966       .  S
C706        O723   1.251       .  A
C706        O715   1.287       .  A
C706       C3570   1.526       .  S
O707       Ni726   1.933       .  S
O707        C713   1.280       .  A
O708       Ni726   1.908       .  S
O708        C710   1.264       .  A
Ni709       O712   1.891       .  S
Ni709       O714   1.882       .  S
C710        O720   1.275       .  A
C710       C3990   1.489   1_554  S
O711       Ni727   1.990       .  S
O711        C717   1.291       .  A
O712        C717   1.264       .  A
C713       C1108   1.490       .  S
O714        C716   1.264       .  A
O715       Ni726   1.998       .  S
C716        O722   1.285       .  A
C716       C1136   1.498       .  S
C717       C1556   1.508       .  S
H718        O719   0.963       .  S
O719       Ni727   1.938       .  S
O719       Ni721   1.884       .  S
O719       Ni726   1.912       .  S
O720       Ni721   1.943       .  S
Ni721       O725   1.900       .  S
Ni721       O723   1.859       .  S
O722       Ni727   1.973       .  S
C724        O725   1.242       .  A
C724       C1374   1.486       .  S
O729       Ni735   1.941       .  S
O729        C750   1.281       .  A
O730       Ni753   1.881       .  S
O730        C739   1.265       .  A
O731       Ni735   1.880       .  S
O731       Ni753   1.878       .  S
O731       Ni747   1.930       .  S
O731        H754   0.965       .  S
C732        O749   1.306       .  A
C732        O741   1.275       .  A
C732       C2046   1.503       .  S
O733       Ni752   1.911       .  S
O733        C739   1.261       .  A
O734       Ni752   1.888       .  S
O734        C736   1.256       .  A
Ni735       O738   1.990       .  S
Ni735       O740   1.905       .  S
C736        O746   1.269       .  A
C736       C1077   1.507       .  S
O737       Ni753   1.879       .  S
O737        C743   1.265       .  A
O738        C743   1.291       .  A
C739       C1696   1.474       .  S
O740        C742   1.265       .  A
O741       Ni752   1.891       .  S
C742        O748   1.274       .  A
C742       C2057   1.504       .  S
C743       C1091   1.522       .  S
H744        O745   0.962       .  S
O745       Ni753   1.911       .  S
O745       Ni747   1.881       .  S
O745       Ni752   1.883       .  S
O746       Ni747   1.971       .  S
Ni747       O751   1.915       .  S
Ni747       O749   2.013       .  S
O748       Ni753   1.949       .  S
C750        O751   1.283       .  A
C750       C1063   1.478       .  S
O755       Ni761   1.900       .  S
O755        C776   1.275       .  A
O756       Ni779   1.855       .  S
O756        C765   1.224       .  A
O757       Ni761   1.937       .  S
O757       Ni779   1.858       .  S
O757       Ni773   1.985       .  S
O757        H780   0.967       .  S
C758        O775   1.308       .  A
C758        O767   1.266       .  A
C758       C1304   1.527       .  S
O759       Ni778   1.844       .  S
O759        C765   1.233       .  A
O760       Ni778   1.912       .  S
O760        C762   1.260       .  A
Ni761       O764   2.025       .  S
Ni761       O766   1.964       .  S
C762        O772   1.277       .  A
C762       C1035   1.533       .  S
O763       Ni779   1.866       .  S
O763        C769   1.255       .  A
O764        C769   1.295       .  A
C765       C1486   1.405       .  S
O766        C768   1.264       .  A
O767       Ni778   1.878       .  S
C768        O774   1.254       .  A
C768       C1315   1.536       .  S
C769       C1049   1.531       .  S
H770        O771   0.961       .  S
O771       Ni779   1.960       .  S
O771       Ni773   1.893       .  S
O771       Ni778   1.909       .  S
O772       Ni773   1.982       .  S
Ni773       O777   1.947       .  S
Ni773       O775   2.036       .  S
O774       Ni779   1.929       .  S
C776        O777   1.283       .  A
C776       C1066   1.485       .  S
O781       Ni787   1.899       .  S
O781        C802   1.264       .  A
O782       Ni805   1.927       .  S
O782        C791   1.288       .  A
O783       Ni787   1.881       .  S
O783       Ni805   1.862       .  S
O783       Ni799   1.934       .  S
O783        H806   0.953       .  S
C784        O801   1.252   1_556  A
C784        O793   1.293       .  A
C784       C3486   1.506       .  S
O785       Ni804   1.928       .  S
O785        C791   1.277       .  A
O786       Ni804   1.906       .  S
O786        C788   1.259       .  A
Ni787       O790   1.908       .  S
Ni787       O792   1.895       .  S
C788        O798   1.278       .  A
C788       C3906   1.511   1_554  S
O789       Ni805   2.015       .  S
O789        C795   1.308       .  A
O790        C795   1.276       .  A
C791       C1021   1.480       .  S
O792        C794   1.261       .  A
O793       Ni804   2.019   1_556  S
C794        O800   1.285       .  A
C794       C1052   1.506       .  S
C795       C1472   1.521       .  S
H796        O797   0.967       .  S
O797       Ni805   1.933       .  S
O797       Ni799   1.839       .  S
O797       Ni804   1.901       .  S
O798       Ni799   1.973       .  S
Ni799       O803   1.842       .  S
Ni799       O801   1.878       .  S
O800       Ni805   1.987       .  S
C802        O803   1.240       .  A
C802       C1290   1.427       .  S
O807      Ni3261   1.825   1_554  S
O807        C828   1.242       .  A
O808       Ni831   1.935   1_554  S
O808        C817   1.289       .  A
O809       Ni831   1.908   1_554  S
O809       Ni825   1.916       .  S
O809      Ni3261   1.844   1_554  S
O809        H832   0.964       .  S
C810        O827   1.276       .  A
C810        O819   1.298       .  A
C810       C1007   1.537       .  S
O811       Ni830   1.912       .  S
O811        C817   1.280       .  A
O812       Ni830   1.955       .  S
O812        C814   1.265       .  A
Ni813       O816   1.849       .  S
Ni813       O818   2.011       .  S
Ni813      O3255   1.825       .  S
Ni813      O3257   1.844       .  S
C814        O824   1.248       .  A
C814       C2270   1.498       .  S
O815      Ni3279   2.047       .  S
O815        C821   1.280       .  A
O816        C821   1.219       .  A
C817       C1024   1.475       .  S
O818        C820   1.304       .  A
O819       Ni830   2.001       .  S
C820        O826   1.266       .  A
C820        C996   1.519       .  S
C821       C2256   1.543       .  S
H822        O823   0.967       .  S
O823       Ni831   1.968   1_554  S
O823       Ni825   1.863       .  S
O823       Ni830   1.893       .  S
O824       Ni825   1.906       .  S
Ni825       O829   1.876       .  S
Ni825       O827   1.896       .  S
O826      Ni3279   1.872       .  S
C828        O829   1.262       .  A
C828       C2410   1.426   1_655  S
Ni831      O3263   2.047       .  S
Ni831      O3274   1.872       .  S
O833       Ni839   1.966       .  S
O833        C854   1.297       .  A
O834       Ni857   1.875       .  S
O834        C843   1.247       .  A
O835       Ni839   1.887       .  S
O835       Ni857   1.860       .  S
O835       Ni851   1.951       .  S
O835        H858   0.967       .  S
C836        O853   1.300       .  A
C836        O845   1.234       .  A
C836       C1612   1.544       .  S
O837       Ni856   1.844       .  S
O837        C843   1.255       .  A
O838       Ni856   1.933       .  S
O838        C840   1.277       .  A
Ni839       O842   2.023       .  S
Ni839       O844   1.942       .  S
C840        O850   1.287       .  A
C840        C951   1.510       .  S
O841       Ni857   1.867       .  S
O841        C847   1.254       .  A
O842        C847   1.296       .  A
C843       C1192   1.445       .  S
O844        C846   1.274       .  A
O845       Ni856   1.859       .  S
C846        O852   1.269       .  A
C846       C1623   1.527       .  S
C847        C968   1.524       .  S
H848        O849   0.954       .  S
O849       Ni857   1.904       .  S
O849       Ni851   1.865       .  S
O849       Ni856   1.841       .  S
O850       Ni851   1.962       .  S
Ni851       O855   1.909       .  S
Ni851       O853   2.067       .  S
O852       Ni857   1.950       .  S
C854        O855   1.296       .  A
C854        C982   1.499       .  S
O859       Ni865   1.906       .  S
O859        C880   1.272       .  A
O860       Ni883   1.862       .  S
O860        C869   1.236       .  A
O861       Ni865   1.920       .  S
O861       Ni883   1.859       .  S
O861       Ni877   1.989       .  S
O861        H884   0.966       .  S
C862        O879   1.317       .  A
C862        O871   1.276       .  A
C862       C2424   1.522       .  S
O863       Ni882   1.886       .  S
O863        C869   1.251       .  A
O864       Ni882   1.897       .  S
O864        C866   1.253       .  A
Ni865       O868   2.010       .  S
Ni865       O870   1.926       .  S
C866        O876   1.273       .  A
C866       C1010   1.509       .  S
O867       Ni883   1.860       .  S
O867        C873   1.248       .  A
O868        C873   1.287       .  A
C869       C2284   1.422       .  S
O870        C872   1.255       .  A
O871       Ni882   1.871       .  S
C872        O878   1.265       .  A
C872       C2438   1.486       .  S
C873        C993   1.498       .  S
H874        O875   0.965       .  S
O875       Ni883   1.917       .  S
O875       Ni877   1.886       .  S
O875       Ni882   1.889       .  S
O876       Ni877   1.976       .  S
Ni877       O881   1.959       .  S
Ni877       O879   2.038       .  S
O878       Ni883   1.934       .  S
C880        O881   1.294       .  A
C880        C979   1.494       .  S
O885      Ni3339   1.893   1_554  S
O885        C906   1.245       .  A
O886       Ni909   1.968       .  S
O886        C895   1.294       .  A
O887       Ni909   1.896       .  S
O887       Ni903   1.902       .  S
O887      Ni3339   1.868   1_554  S
O887        H910   0.958       .  S
C888        O905   1.254       .  A
C888        O897   1.292       .  A
C888       C1150   1.528       .  S
O889       Ni908   1.907       .  S
O889        C895   1.276       .  A
O890       Ni908   1.931       .  S
O890        C892   1.259       .  A
Ni891       O894   1.853       .  S
Ni891       O896   1.882       .  S
Ni891      O3333   1.893       .  S
Ni891      O3335   1.868       .  S
C892        O902   1.271       .  A
C892       C2004   1.506       .  S
O893      Ni3357   2.084       .  S
O893        C899   1.327       .  A
O894        C899   1.268       .  A
C895        C937   1.495       .  S
O896        C898   1.236       .  A
O897       Ni908   2.020       .  S
C898        O904   1.265       .  A
C898       C1164   1.518       .  S
C899       C1990   1.548       .  S
H900        O901   0.966       .  S
O901       Ni909   1.999       .  S
O901       Ni903   1.886       .  S
O901       Ni908   1.924       .  S
O902       Ni903   1.948       .  S
Ni903       O907   1.887       .  S
Ni903       O905   1.865       .  S
O904      Ni3357   1.982       .  S
C906        O907   1.247       .  A
C906       C1875   1.435       .  S
Ni909      O3341   2.084   1_554  S
Ni909      O3352   1.982   1_554  S
O911       Ni917   1.909       .  S
O911        C932   1.266       .  A
O912       Ni935   1.939       .  S
O912        C921   1.290       .  A
O913       Ni917   1.900       .  S
O913       Ni935   1.876       .  S
O913       Ni929   1.947       .  S
O913        H936   0.963       .  S
C914        O931   1.271       .  A
C914        O923   1.291       .  A
C914       C3402   1.536       .  S
O915       Ni934   1.934       .  S
O915        C921   1.279       .  A
O916       Ni934   1.905       .  S
O916        C918   1.263       .  A
Ni917       O920   1.907       .  S
Ni917       O922   1.909       .  S
C918        O928   1.266       .  A
C918       C1203   1.474       .  S
O919       Ni935   2.001       .  S
O919        C925   1.287       .  A
O920        C925   1.263       .  A
C921        C940   1.499       .  S
O922        C924   1.283       .  A
O923       Ni934   1.989       .  S
C924        O930   1.304       .  A
C924        C965   1.497       .  S
C925       C1220   1.533       .  S
H926        O927   0.965       .  S
O927       Ni935   1.932       .  S
O927       Ni929   1.869       .  S
O927       Ni934   1.890       .  S
O928       Ni929   1.916       .  S
Ni929       O933   1.874       .  S
Ni929       O931   1.900       .  S
O930       Ni935   1.998       .  S
C932        O933   1.254       .  A
C932       C1640   1.467       .  S
C937        C938   1.414       .  A
C937        C942   1.419       .  A
C938        C939   1.409       .  A
C938        C943   1.454       .  S
C939        C940   1.418       .  A
C939        C946   1.454       .  S
C940        C941   1.413       .  A
C941        C942   1.423       .  A
C941        C944   1.450       .  S
C942        C945   1.446       .  S
C943        N950   1.157   1_554  T
C944        N949   1.157       .  T
C945        N947   1.156       .  T
C946        N948   1.157       .  T
C951        C952   1.414       .  A
C951        C956   1.407       .  A
C952        C953   1.427       .  A
C952        C957   1.444       .  S
C953        C954   1.423       .  A
C953        C960   1.449       .  S
C954       C3362   1.536       .  S
C954       C3403   1.432       .  A
C955       C3402   1.432       .  A
C955       C3404   1.420       .  A
C955        C958   1.451       .  S
C956       C3403   1.420       .  A
C956        C959   1.451       .  S
C957        N964   1.156       .  T
C958        N963   1.157       .  T
C959       N3409   1.157       .  T
C960        N962   1.158       .  T
N961       C3407   1.157       .  T
C965        C966   1.402       .  A
C965        C970   1.414       .  A
C966        C967   1.414       .  A
C966        C971   1.451       .  S
C967        C968   1.436       .  A
C967        C974   1.451       .  S
C968        C969   1.415       .  A
C969        C970   1.423       .  A
C969        C972   1.448       .  S
C970        C973   1.443       .  S
C971        N978   1.156       .  T
C972        N977   1.157       .  T
C973        N975   1.156       .  T
C974        N976   1.157       .  T
C979        C980   1.406       .  A
C979        C984   1.424       .  A
C980        C981   1.414       .  A
C980        C985   1.451       .  S
C981        C982   1.422       .  A
C981        C988   1.445       .  S
C982        C983   1.410       .  A
C983        C984   1.411       .  A
C983        C986   1.452       .  S
C984        C987   1.453       .  S
C985        N992   1.158       .  T
C986        N991   1.157       .  T
C987        N989   1.158       .  T
C988        N990   1.155       .  T
C993        C994   1.406       .  A
C993        C998   1.420       .  A
C994        C995   1.421       .  A
C994        C999   1.451       .  S
C995        C996   1.436       .  A
C995       C1002   1.452       .  S
C996        C997   1.410       .  A
C997        C998   1.416       .  A
C997       C1000   1.452       .  S
C998       C1001   1.439       .  S
C999       N1006   1.157       .  T
C1000      N1005   1.157       .  T
C1001      N1003   1.153       .  T
C1002      N1004   1.158       .  T
C1007      C1008   1.426       .  A
C1007      C1012   1.435       .  A
C1008      C1009   1.425       .  A
C1008      C1013   1.450       .  S
C1009      C1010   1.415       .  A
C1009      C1016   1.449       .  S
C1010      C1011   1.410       .  A
C1011      C1012   1.421       .  A
C1011      C1014   1.453       .  S
C1012      C1015   1.452       .  S
C1013      N1020   1.158       .  T
C1014      N1019   1.157       .  T
C1015      N1017   1.158       .  T
C1016      N1018   1.157       .  T
C1021      C1022   1.419       .  A
C1021      C1026   1.409       .  A
C1022      C1023   1.403       .  A
C1022      C1027   1.454       .  S
C1023      C1024   1.408       .  A
C1023      C3478   1.454   1_554  S
C1024      C1025   1.417       .  A
C1025      C1026   1.413       .  A
C1025      C1028   1.451       .  S
C1026      C1029   1.450       .  S
C1027      N3482   1.157   1_554  T
C1028      N1033   1.157       .  T
C1029      N1031   1.157       .  T
C1030      C3471   1.454       .  S
C1030      N1032   1.157       .  T
N1034      C3475   1.157       .  T
C1035      C1036   1.429       .  A
C1035      C1040   1.421       .  A
C1036      C1037   1.414       .  A
C1036      C1041   1.452       .  S
C1037      C1038   1.401       .  A
C1037      C1044   1.445       .  S
C1038      C3232   1.506       .  S
C1038      C1039   1.422       .  A
C1039      C1040   1.432       .  A
C1039      C1042   1.448       .  S
C1040      C1043   1.448       .  S
C1041      N1048   1.158       .  T
C1042      N1047   1.157       .  T
C1043      N1045   1.157       .  T
C1044      N1046   1.156       .  T
C1049      C1050   1.417       .  A
C1049      C1054   1.435       .  A
C1050      C1051   1.427       .  A
C1050      C1055   1.448       .  S
C1051      C1052   1.418       .  A
C1051      C1058   1.444       .  S
C1052      C1053   1.406       .  A
C1053      C1054   1.418       .  A
C1053      C1056   1.450       .  S
C1054      C1057   1.453       .  S
C1055      N1062   1.157       .  T
C1056      N1061   1.157       .  T
C1057      N1059   1.158       .  T
C1058      N1060   1.156       .  T
C1063      C1064   1.413       .  A
C1063      C1068   1.409       .  A
C1064      C1065   1.419       .  A
C1064      C1069   1.449       .  S
C1065      C1066   1.413       .  A
C1065      C1072   1.448       .  S
C1066      C1067   1.415       .  A
C1067      C1068   1.403       .  A
C1067      C1070   1.454       .  S
C1068      C1071   1.454       .  S
C1069      N1076   1.157       .  T
C1070      N1075   1.157       .  T
C1071      N1073   1.157       .  T
C1072      N1074   1.158       .  T
C1077      C1078   1.426       .  A
C1077      C1082   1.409       .  A
C1078      C1079   1.433       .  A
C1078      C1083   1.446       .  S
C1079      C1080   1.414       .  A
C1079      C1086   1.446       .  S
C1080      C1081   1.408       .  A
C1081      C1082   1.395       .  A
C1081      C1084   1.443       .  S
C1082      C1085   1.452       .  S
C1083      N1090   1.157       .  T
C1084      N1089   1.155       .  T
C1085      N1087   1.157       .  T
C1086      N1088   1.157       .  T
C1091      C1092   1.420       .  A
C1091      C1096   1.430       .  A
C1092      C1093   1.422       .  A
C1092      C1097   1.449       .  S
C1093      C1094   1.412       .  A
C1093      C1100   1.444       .  S
C1094      C1095   1.404       .  A
C1095      C1096   1.414       .  A
C1095      C1098   1.450       .  S
C1096      C1099   1.451       .  S
C1097      N1104   1.157       .  T
C1098      N1103   1.157       .  T
C1099      N1101   1.157       .  T
C1100      N1102   1.156       .  T
C1105      C1106   1.410       .  A
C1105      C1110   1.412       .  A
C1106      C1107   1.410       .  A
C1106      C1111   1.452       .  S
C1107      C1108   1.417       .  A
C1107      C1114   1.452       .  S
C1108      C1109   1.415       .  A
C1109      C1110   1.414       .  A
C1109      C1112   1.450       .  S
C1110      C1113   1.451       .  S
C1111      N1118   1.157       .  T
C1112      N1117   1.157       .  T
C1113      N1115   1.157       .  T
C1114      N1116   1.157       .  T
C1119      C1120   1.414       .  A
C1119      C1124   1.401       .  A
C1120      C1121   1.424       .  A
C1120      C1125   1.445       .  S
C1121      C1122   1.417       .  A
C1121      C1128   1.448       .  S
C1122      C3154   1.526       .  S
C1122      C1123   1.438       .  A
C1123      C1124   1.413       .  A
C1123      C3574   1.452       .  S
C1124      C1127   1.450       .  S
C1125      N1132   1.157       .  T
C1126      C3571   1.452       .  S
C1126      N1131   1.157       .  T
C1127      N1129   1.156       .  T
C1128      N1130   1.157       .  T
C1133      C1134   1.436       .  A
C1133      C1138   1.414       .  A
C1134      C1135   1.417       .  A
C1134      C1139   1.449       .  S
C1135      C1136   1.402       .  A
C1135      C1142   1.451       .  S
C1136      C1137   1.417       .  A
C1137      C1138   1.424       .  A
C1137      C1140   1.444       .  S
C1138      C1141   1.449       .  S
C1139      N1146   1.157       .  T
C1140      N1145   1.157       .  T
C1141      N1143   1.157       .  T
C1142      N1144   1.157       .  T
C1147      C1148   1.408       .  A
C1147      C1152   1.421       .  A
C1148      C1149   1.419       .  A
C1148      C1153   1.449       .  S
C1149      C1150   1.428       .  A
C1149      C1156   1.452       .  S
C1150      C1151   1.415       .  A
C1151      C1152   1.432       .  A
C1151      C1154   1.446       .  S
C1152      C1155   1.443       .  S
C1153      N1160   1.157       .  T
C1154      N1159   1.157       .  T
C1155      N1157   1.156       .  T
C1156      N1158   1.157       .  T
C1161      C1162   1.411       .  A
C1161      C1166   1.411       .  A
C1162      C1163   1.405       .  A
C1162      C1167   1.453       .  S
C1163      C1164   1.432       .  A
C1163      C1170   1.459       .  S
C1164      C1165   1.423       .  A
C1165      C1166   1.424       .  A
C1165      C1168   1.448       .  S
C1166      C1169   1.449       .  S
C1167      N1174   1.157       .  T
C1168      N3621   1.157       .  T
C1169      N1171   1.157       .  T
C1170      N1172   1.158       .  T
N1173      C3616   1.157       .  T
C1175      C1176   1.416       .  A
C1175      C1180   1.424       .  A
C1176      C1177   1.420       .  A
C1176      C1181   1.452       .  S
C1177      C1178   1.422       .  A
C1177      C1184   1.452       .  S
C1178      C1179   1.414       .  A
C1179      C1180   1.424       .  A
C1179      C1182   1.450       .  S
C1180      C1183   1.450       .  S
C1181      N1188   1.158       .  T
C1182      N1187   1.157       .  T
C1183      N1185   1.157       .  T
C1184      N1186   1.157       .  T
C1189      C1190   1.428       .  A
C1189      C1194   1.393       .  A
C1190      C1191   1.393       .  A
C1190      C1195   1.438       .  S
C1191      C1192   1.388       .  A
C1191      C1198   1.463       .  S
C1192      C1193   1.423       .  A
C1193      C1194   1.396       .  A
C1193      C1196   1.441       .  S
C1194      C1197   1.460       .  S
C1195      N1202   1.158       .  T
C1196      N1201   1.158       .  T
C1197      N1199   1.157       .  T
C1198      N1200   1.157       .  T
C1203      C1208   1.406   1_554  A
C1203      C3652   1.403   1_554  A
C1204      C1205   1.405       .  A
C1204      C3651   1.402       .  A
C1204      C1209   1.454       .  S
C1205      C1206   1.428       .  A
C1205      C1212   1.449       .  S
C1206      C1207   1.426       .  A
C1207      C3656   1.414       .  A
C1207      C3658   1.450       .  S
C1208      C3655   1.414       .  A
C1208      C1211   1.451   1_556  S
C1209      N1216   1.157       .  T
C1210      C3655   1.450       .  S
C1210      N1215   1.158       .  T
C1211      N1213   1.157       .  T
C1212      N1214   1.156       .  T
C1217      C1218   1.421       .  A
C1217      C1222   1.415       .  A
C1218      C1219   1.430       .  A
C1218      C1223   1.448       .  S
C1219      C1220   1.416       .  A
C1219      C1226   1.447       .  S
C1220      C1221   1.421       .  A
C1221      C1222   1.432       .  A
C1221      C1224   1.443       .  S
C1222      C1225   1.448       .  S
C1223      N1230   1.157       .  T
C1224      N1229   1.156       .  T
C1225      N1227   1.157       .  T
C1226      N1228   1.157       .  T
C1231      C1232   1.421       .  A
C1231      C1236   1.413       .  A
C1232      C1233   1.410   1_545  A
C1232      C1237   1.452       .  S
C1233      C1234   1.407       .  A
C1233      C1240   1.452       .  S
C1234      C1235   1.413       .  A
C1235      C1236   1.408   1_565  A
C1235      C1238   1.453       .  S
C1236      C1239   1.452       .  S
C1237      N1244   1.158       .  T
C1238      N1243   1.157       .  T
C1239      N1241   1.157       .  T
C1240      N1242   1.157       .  T
C1245      C1246   1.431       .  A
C1245      C1250   1.424       .  A
C1246      C1247   1.413       .  A
C1246      C1251   1.443       .  S
C1247      C1248   1.404       .  A
C1247      C1254   1.452       .  S
C1248      C3060   1.494       .  S
C1248      C1249   1.408       .  A
C1249      C1250   1.427       .  A
C1249      C3700   1.444   1_554  S
C1250      C1253   1.446       .  S
C1251      N1258   1.155       .  T
C1252      C3697   1.444       .  S
C1252      N1257   1.156       .  T
C1253      N1255   1.157       .  T
C1254      N1256   1.157       .  T
C1259      C1260   1.415       .  A
C1259      C1264   1.397       .  A
C1260      C1261   1.428       .  A
C1260      C1265   1.444       .  S
C1261      C1262   1.414       .  A
C1261      C1268   1.446       .  S
C1262      C1263   1.437       .  A
C1263      C1264   1.416       .  A
C1263      C1266   1.447       .  S
C1264      C1267   1.452       .  S
C1265      N1272   1.157       .  T
C1266      N1271   1.156       .  T
C1267      N1269   1.157       .  T
C1268      N1270   1.158       .  T
C1273      C1274   1.413       .  A
C1273      C1278   1.412       .  A
C1274      C1275   1.411       .  A
C1274      C1279   1.452       .  S
C1275      C1276   1.412       .  A
C1275      C1282   1.451       .  S
C1276      C1277   1.410       .  A
C1277      C1278   1.411       .  A
C1277      C1280   1.451       .  S
C1278      C1281   1.450       .  S
C1279      N1286   1.157       .  T
C1280      N1285   1.157       .  T
C1281      N1283   1.157       .  T
C1282      N1284   1.157       .  T
C1287      C1288   1.420       .  A
C1287      C1292   1.384       .  A
C1288      C1289   1.388       .  A
C1288      C1293   1.438       .  S
C1289      C1290   1.389       .  A
C1289      C1296   1.455       .  S
C1290      C1291   1.413       .  A
C1291      C1292   1.375       .  A
C1291      C1294   1.438       .  S
C1292      C1295   1.452       .  S
C1293      N1300   1.156       .  T
C1294      N1299   1.154   1_554  T
C1295      N1297   1.154       .  T
C1296      N1298   1.157       .  T
C1301      C2972   1.516       .  S
C1301      C1306   1.411       .  A
C1301      C3750   1.427       .  A
C1302      C3749   1.427       .  A
C1302      C3751   1.428   1_554  A
C1302      C1307   1.451       .  S
C1303      C1304   1.413       .  A
C1303      C3750   1.428       .  A
C1303      C3758   1.448       .  S
C1304      C1305   1.429       .  A
C1305      C1306   1.426       .  A
C1305      C1308   1.451       .  S
C1306      C1309   1.449       .  S
C1307      N1314   1.157       .  T
C1308      N1313   1.157       .  T
C1309      N1311   1.157       .  T
C1310      C3751   1.448   1_554  S
C1310      N1312   1.157       .  T
C1315      C1316   1.426       .  A
C1315      C1320   1.423       .  A
C1316      C1317   1.418       .  A
C1316      C1321   1.454       .  S
C1317      C1318   1.424       .  A
C1317      C1324   1.456       .  S
C1318      C1319   1.423       .  A
C1319      C1320   1.435       .  A
C1319      C1322   1.448       .  S
C1320      C1323   1.447       .  S
C1321      N1328   1.158       .  T
C1322      N1327   1.157       .  T
C1323      N1325   1.157       .  T
C1324      N1326   1.158       .  T
C1329      C1330   1.421       .  A
C1329      C1334   1.406       .  A
C1330      C1331   1.415       .  A
C1330      C1335   1.453       .  S
C1331      C1332   1.414   1_545  A
C1331      C1338   1.450   1_545  S
C1332      C1333   1.430       .  A
C1333      C1334   1.414   1_565  A
C1333      C1336   1.453       .  S
C1334      C1337   1.449       .  S
C1335      N1342   1.157       .  T
C1336      N1341   1.158       .  T
C1337      N1339   1.157       .  T
C1338      N1340   1.157       .  T
C1343      C2920   1.519       .  S
C1343      C1348   1.414       .  A
C1343      C3792   1.423       .  A
C1344      C3791   1.423       .  A
C1344      C3793   1.425   1_554  A
C1344      C1349   1.449       .  S
C1345      C1346   1.409       .  A
C1345      C3792   1.425       .  A
C1345      C1352   1.447       .  S
C1346      C1347   1.421       .  A
C1347      C1348   1.428       .  A
C1347      C1350   1.448       .  S
C1348      C1351   1.447       .  S
C1349      N1356   1.157       .  T
C1350      N1355   1.157       .  T
C1351      N1353   1.157       .  T
C1352      N3802   1.157       .  T
N1354      C3800   1.157   1_554  T
C1357      C1358   1.420       .  A
C1357      C1362   1.418       .  A
C1358      C1359   1.424       .  A
C1358      C1363   1.446       .  S
C1359      C1360   1.419       .  A
C1359      C1366   1.451       .  S
C1360      C1361   1.422       .  A
C1361      C1362   1.416       .  A
C1361      C1364   1.453       .  S
C1362      C1365   1.449       .  S
C1363      N1370   1.156       .  T
C1364      N1369   1.158       .  T
C1365      N1367   1.156       .  T
C1366      N1368   1.158       .  T
C1371      C1372   1.390       .  A
C1371      C1376   1.385       .  A
C1372      C1373   1.401       .  A
C1372      C1377   1.438       .  S
C1373      C1374   1.429       .  A
C1373      C1380   1.443       .  S
C1374      C1375   1.438       .  A
C1375      C1376   1.410       .  A
C1375      C1378   1.449       .  S
C1376      C1379   1.440       .  S
C1377      N1384   1.154       .  T
C1378      N1383   1.157       .  T
C1379      N1381   1.154   1_554  T
C1380      N1382   1.156       .  T
C1385      C1386   1.417       .  A
C1385      C1390   1.427       .  A
C1386      C1387   1.426       .  A
C1386      C1391   1.453       .  S
C1387      C1388   1.422       .  A
C1387      C1394   1.443       .  S
C1388      C1389   1.412       .  A
C1389      C1390   1.429       .  A
C1389      C1392   1.448       .  S
C1390      C1393   1.449       .  S
C1391      N1398   1.158       .  T
C1392      N1397   1.157       .  T
C1393      N1395   1.157       .  T
C1394      N1396   1.156       .  T
C1399      C2904   1.535       .  S
C1399      C1400   1.423       .  A
C1399      C1404   1.424       .  A
C1400      C1401   1.445       .  A
C1400      C3853   1.446       .  S
C1401      C1402   1.424       .  A
C1401      C1408   1.446       .  S
C1402      C1403   1.412       .  A
C1403      C1404   1.412       .  A
C1403      C1406   1.446       .  S
C1404      C1407   1.455       .  S
C1405      C3848   1.446       .  S
C1405      N1412   1.157       .  T
C1406      N1411   1.156       .  T
C1407      N1409   1.157       .  T
C1408      N1410   1.157       .  T
C1413      C1414   1.429       .  A
C1413      C3866   1.422   1_554  A
C1414      C1415   1.439       .  A
C1414      C1419   1.446       .  S
C1415      C3864   1.416   1_554  A
C1415      C1422   1.446       .  S
C1416      C1417   1.414       .  A
C1416      C3863   1.416       .  A
C1417      C1418   1.403       .  A
C1417      C1420   1.449       .  S
C1418      C3861   1.422       .  A
C1418      C1421   1.456       .  S
C1419      N1426   1.157       .  T
C1420      N1425   1.158       .  T
C1421      N1423   1.158       .  T
C1422      N1424   1.157       .  T
C1427      C1428   1.413       .  A
C1427      C1432   1.439       .  A
C1428      C1429   1.426       .  A
C1428      C1433   1.447       .  S
C1429      C1430   1.420       .  A
C1429      C1436   1.443       .  S
C1430      C1431   1.402       .  A
C1431      C1432   1.413       .  A
C1431      C1434   1.452       .  S
C1432      C1435   1.454       .  S
C1433      N1440   1.157       .  T
C1434      N1439   1.157       .  T
C1435      N1437   1.158       .  T
C1436      N1438   1.155       .  T
C1441      C1442   1.406   1_655  A
C1441      C1446   1.415       .  A
C1442      C1443   1.402       .  A
C1442      C1447   1.454   1_455  S
C1443      C1444   1.418       .  A
C1443      C1450   1.454       .  S
C1444      C1445   1.409       .  A
C1445      C1446   1.414   1_455  A
C1445      C1448   1.450       .  S
C1446      C1449   1.448       .  S
C1447      N1454   1.157       .  T
C1448      N1453   1.157       .  T
C1449      N1451   1.157       .  T
C1450      N1452   1.157       .  T
C1455      C1456   1.393       .  A
C1455      C1460   1.403       .  A
C1456      C3905   1.413       .  A
C1456      C3909   1.451       .  S
C1457      C3904   1.413       .  A
C1457      C3906   1.429   1_554  A
C1457      C1464   1.440       .  S
C1458      C3236   1.511       .  S
C1458      C1459   1.421       .  A
C1458      C3905   1.429       .  A
C1459      C1460   1.417       .  A
C1459      C1462   1.449       .  S
C1460      C1463   1.444       .  S
C1461      C3904   1.451       .  S
C1461      N1468   1.158       .  T
C1462      N1467   1.157       .  T
C1463      N1465   1.156       .  T
C1464      N1466   1.157       .  T
C1469      C1470   1.435       .  A
C1469      C1474   1.413       .  A
C1470      C1471   1.426       .  A
C1470      C1475   1.443       .  S
C1471      C1472   1.403       .  A
C1471      C1478   1.451       .  S
C1472      C1473   1.423       .  A
C1473      C1474   1.433       .  A
C1473      C1476   1.446       .  S
C1474      C1477   1.446       .  S
C1475      N1482   1.155       .  T
C1476      N1481   1.157       .  T
C1477      N1479   1.157       .  T
C1478      N1480   1.157       .  T
C1483      C1484   1.414       .  A
C1483      C1488   1.392       .  A
C1484      C1485   1.376       .  A
C1484      C1489   1.443       .  S
C1485      C1486   1.387       .  A
C1485      C1492   1.460       .  S
C1486      C1487   1.413       .  A
C1487      C1488   1.385       .  A
C1487      C1490   1.447       .  S
C1488      C1491   1.455       .  S
C1489      N1496   1.155       .  T
C1490      N1495   1.157       .  T
C1491      N1493   1.157       .  T
C1492      N1494   1.157       .  T
C1497      C1502   1.414   1_556  A
C1497      C3946   1.399       .  A
C1498      C1499   1.404       .  A
C1498      C3945   1.399       .  A
C1498      C1503   1.448       .  S
C1499      C1500   1.418       .  A
C1499      C1506   1.436       .  S
C1500      C3949   1.413       .  A
C1501      C1502   1.420       .  A
C1501      C3948   1.413   1_554  A
C1501      C1504   1.445       .  S
C1502      C1505   1.439       .  S
C1503      N1510   1.157       .  T
C1504      N1509   1.157       .  T
C1505      N1507   1.155       .  T
C1506      N1508   1.153       .  T
C1511      C1512   1.409       .  A
C1511      C1516   1.400       .  A
C1512      C1513   1.425       .  A
C1512      C1517   1.440       .  S
C1513      C1514   1.416       .  A
C1513      C1520   1.443       .  S
C1514      C1515   1.428       .  A
C1515      C1516   1.417       .  A
C1515      C1518   1.441       .  S
C1516      C1519   1.451       .  S
C1517      N1524   1.156       .  T
C1518      N1523   1.155       .  T
C1519      N1521   1.157       .  T
C1520      N1522   1.157       .  T
C1525      C1526   1.414       .  A
C1525      C1530   1.401       .  A
C1526      C1527   1.393       .  A
C1526      C1531   1.442       .  S
C1527      C1528   1.400       .  A
C1527      C1534   1.457       .  S
C1528      C1529   1.415       .  A
C1529      C1530   1.399       .  A
C1529      C1532   1.444       .  S
C1530      C1533   1.454       .  S
C1531      N1538   1.155       .  T
C1532      N1537   1.156       .  T
C1533      N1535   1.157       .  T
C1534      N1536   1.157       .  T
C1539      C1540   1.429       .  A
C1539      C1544   1.432       .  A
C1540      C1541   1.422       .  A
C1540      C1545   1.450       .  S
C1541      C1542   1.409       .  A
C1541      C3996   1.450       .  S
C1542      C3158   1.489       .  S
C1542      C1543   1.398       .  A
C1543      C1544   1.408       .  A
C1543      C1546   1.452       .  S
C1544      C1547   1.442       .  S
C1545      N1552   1.158       .  T
C1546      N1551   1.157       .  T
C1547      N1549   1.155       .  T
C1548      C3989   1.450   1_554  S
C1548      N1550   1.157       .  T
C1553      C1554   1.418       .  A
C1553      C1558   1.413       .  A
C1554      C1555   1.426       .  A
C1554      C1559   1.448       .  S
C1555      C1556   1.413       .  A
C1555      C1562   1.447       .  S
C1556      C1557   1.420       .  A
C1557      C1558   1.424       .  A
C1557      C1560   1.449       .  S
C1558      C1561   1.450       .  S
C1559      N1566   1.157       .  T
C1560      N1565   1.157       .  T
C1561      N1563   1.157       .  T
C1562      N1564   1.157       .  T
C1567      C1568   1.422       .  A
C1567      C1572   1.412       .  A
C1568      C1569   1.415       .  A
C1568      C1573   1.452       .  S
C1569      C1570   1.410       .  A
C1569      C1576   1.451       .  S
C1570      C1571   1.419       .  A
C1571      C1572   1.418       .  A
C1571      C1574   1.451       .  S
C1572      C1575   1.450       .  S
C1573      N1580   1.157       .  T
C1574      N1579   1.157       .  T
C1575      N1577   1.157       .  T
C1576      N1578   1.157       .  T
C1581      C2826   1.522   1_554  S
C1581      C1582   1.429   1_554  A
C1581      C1586   1.412       .  A
C1582      C1583   1.419   1_556  A
C1582      C4035   1.443       .  S
C1583      C1584   1.408       .  A
C1583      C1590   1.454       .  S
C1584      C1585   1.429       .  A
C1585      C1586   1.427       .  A
C1585      C1588   1.449       .  S
C1586      C1589   1.449       .  S
C1587      C4030   1.443       .  S
C1587      N1594   1.155       .  T
C1588      N1593   1.157       .  T
C1589      N1591   1.157       .  T
C1590      N1592   1.158   1_554  T
C1595      C1596   1.414       .  A
C1595      C1600   1.410       .  A
C1596      C1597   1.426       .  A
C1596      C1601   1.441       .  S
C1597      C1598   1.418       .  A
C1597      C1604   1.447       .  S
C1598      C1599   1.418       .  A
C1599      C1600   1.418       .  A
C1599      C1602   1.445       .  S
C1600      C1603   1.448       .  S
C1601      N1608   1.154       .  T
C1602      N1607   1.157       .  T
C1603      N1605   1.157       .  T
C1604      N1606   1.158       .  T
C1609      C1614   1.395   1_554  A
C1609      C4058   1.424       .  A
C1610      C1611   1.446       .  A
C1610      C4057   1.424       .  A
C1610      C1615   1.444       .  S
C1611      C1612   1.424       .  A
C1611      C1618   1.445       .  S
C1612      C1613   1.445       .  A
C1613      C4062   1.402       .  A
C1613      C1616   1.459       .  S
C1614      C4061   1.402       .  A
C1614      C1617   1.444       .  S
C1615      N1622   1.157       .  T
C1616      N1621   1.158       .  T
C1617      N1619   1.153       .  T
C1618      N1620   1.157       .  T
C1623      C1624   1.430       .  A
C1623      C1628   1.419       .  A
C1624      C1625   1.422       .  A
C1624      C1629   1.451       .  S
C1625      C1626   1.415       .  A
C1625      C1632   1.452       .  S
C1626      C1627   1.419       .  A
C1627      C1628   1.420       .  A
C1627      C1630   1.453       .  S
C1628      C1631   1.445       .  S
C1629      N1636   1.157       .  T
C1630      N1635   1.157       .  T
C1631      N1633   1.155       .  T
C1632      N1634   1.157       .  T
C1637      C1638   1.390       .  A
C1637      C1642   1.404       .  A
C1638      C1639   1.392       .  A
C1638      C1643   1.446       .  S
C1639      C1640   1.414       .  A
C1639      C1646   1.439       .  S
C1640      C1641   1.411       .  A
C1641      C1642   1.400       .  A
C1641      C1644   1.441       .  S
C1642      C1645   1.448       .  S
C1643      N1650   1.157       .  T
C1644      N1649   1.154       .  T
C1645      N1647   1.157   1_554  T
C1646      N1648   1.154       .  T
C1651      C1652   1.417       .  A
C1651      C1656   1.398   1_554  A
C1652      C1653   1.432       .  A
C1652      C1657   1.445       .  S
C1653      C4102   1.424   1_554  A
C1653      C1660   1.446       .  S
C1654      C1655   1.433       .  A
C1654      C4101   1.424       .  A
C1655      C4104   1.411       .  A
C1655      C1658   1.448       .  S
C1656      C4103   1.411       .  A
C1656      C4107   1.446       .  S
C1657      N1664   1.157       .  T
C1658      N1663   1.157       .  T
C1659      C4104   1.446       .  S
C1659      N1661   1.157       .  T
C1660      N1662   1.157       .  T
C1665      C1666   1.400       .  A
C1665      C1670   1.414       .  A
C1666      C1667   1.408       .  A
C1666      C1671   1.452       .  S
C1667      C1668   1.430       .  A
C1667      C1674   1.445       .  S
C1668      C1669   1.417       .  A
C1669      C1670   1.422       .  A
C1669      C1672   1.448       .  S
C1670      C1673   1.444       .  S
C1671      N1678   1.157       .  T
C1672      N1677   1.157       .  T
C1673      N1675   1.157       .  T
C1674      N1676   1.154       .  T
C1679      C1680   1.418       .  A
C1679      C1684   1.413       .  A
C1680      C1681   1.421   1_655  A
C1680      C1685   1.450       .  S
C1681      C1682   1.414       .  A
C1681      C1688   1.450       .  S
C1682      C1683   1.417       .  A
C1683      C1684   1.411   1_455  A
C1683      C1686   1.453       .  S
C1684      C1687   1.453       .  S
C1685      N1692   1.157       .  T
C1686      N1691   1.157       .  T
C1687      N1689   1.157       .  T
C1688      N1690   1.157       .  T
C1693      C1694   1.410       .  A
C1693      C1698   1.428       .  A
C1694      C1695   1.397       .  A
C1694      C1699   1.441       .  S
C1695      C1696   1.403       .  A
C1695      C1702   1.451       .  S
C1696      C1697   1.412       .  A
C1697      C1698   1.405       .  A
C1697      C1700   1.451       .  S
C1698      C1701   1.455       .  S
C1699      N1706   1.153       .  T
C1700      N1705   1.156       .  T
C1701      N1703   1.157       .  T
C1702      N1704   1.157       .  T
C1707      C1708   1.424       .  A
C1707      C1712   1.414       .  A
C1708      C1709   1.424       .  A
C1708      C1713   1.446       .  S
C1709      C1710   1.408       .  A
C1709      C1716   1.449       .  S
C1710      C1711   1.421       .  A
C1711      C1712   1.427       .  A
C1711      C1714   1.448       .  S
C1712      C1715   1.448       .  S
C1713      N1720   1.157       .  T
C1714      N1719   1.157       .  T
C1715      N1717   1.157       .  T
C1716      N1718   1.157       .  T
C1721      C1722   1.411       .  A
C1721      C1726   1.415       .  A
C1722      C1723   1.415       .  A
C1722      C1727   1.440       .  S
C1723      C1724   1.401       .  A
C1723      C1730   1.445       .  S
C1724      C1725   1.413       .  A
C1725      C1726   1.414       .  A
C1725      C1728   1.442       .  S
C1726      C1729   1.448       .  S
C1727      N1734   1.157       .  T
C1728      N1733   1.155       .  T
C1729      N1731   1.157       .  T
C1730      N1732   1.157       .  T
C1735      C1736   1.412       .  A
C1735      C1740   1.413       .  A
C1736      C1737   1.404       .  A
C1736      C1741   1.454       .  S
C1737      C1738   1.414       .  A
C1737      C1744   1.455       .  S
C1738      C1739   1.414       .  A
C1739      C1740   1.420       .  A
C1739      C1742   1.448       .  S
C1740      C1743   1.448       .  S
C1741      N1748   1.157       .  T
C1742      N1747   1.157       .  T
C1743      N1745   1.157       .  T
C1744      N1746   1.157       .  T
C1749      C1750   1.405       .  A
C1749      C1754   1.428       .  A
C1750      C1751   1.394       .  A
C1750      C1755   1.447       .  S
C1751      C1752   1.410       .  A
C1751      C1758   1.450       .  S
C1752      C1753   1.400       .  A
C1753      C1754   1.398       .  A
C1753      C1756   1.452       .  S
C1754      C1757   1.452       .  S
C1755      N1762   1.156       .  T
C1756      N1761   1.157       .  T
C1757      N1759   1.157       .  T
C1758      N1760   1.157       .  T
C1763      C1764   1.409       .  A
C1763      C1768   1.420       .  A
C1764      C1765   1.426       .  A
C1764      C1769   1.448       .  S
C1765      C1766   1.423       .  A
C1765      C1772   1.445   1_554  S
C1766      C2827   1.508       .  S
C1766      C1767   1.414       .  A
C1767      C1768   1.423       .  A
C1767      C1770   1.449       .  S
C1768      C1771   1.451       .  S
C1769      N1776   1.157       .  T
C1770      N1775   1.157       .  T
C1771      N1773   1.157       .  T
C1772      N4222   1.156       .  T
N1774      C4220   1.156       .  T
C1777      C1778   1.426       .  A
C1777      C1782   1.423       .  A
C1778      C1779   1.412       .  A
C1778      C1783   1.446       .  S
C1779      C1780   1.403       .  A
C1779      C1786   1.450       .  S
C1780      C1781   1.408       .  A
C1781      C1782   1.421       .  A
C1781      C1784   1.448       .  S
C1782      C1785   1.449       .  S
C1783      N1790   1.156       .  T
C1784      N1789   1.157       .  T
C1785      N1787   1.157       .  T
C1786      N1788   1.156       .  T
C1791      C1792   1.415       .  A
C1791      C1796   1.421       .  A
C1792      C1793   1.424       .  A
C1792      C1797   1.451       .  S
C1793      C1794   1.416       .  A
C1793      C1800   1.435       .  S
C1794      C1795   1.420       .  A
C1795      C1796   1.434       .  A
C1795      C1798   1.448       .  S
C1796      C1799   1.447       .  S
C1797      N1804   1.157       .  T
C1798      N1803   1.157       .  T
C1799      N1801   1.157       .  T
C1800      N1802   1.151       .  T
C1805      C1806   1.400       .  A
C1805      C1810   1.403       .  A
C1806      C1807   1.413       .  A
C1806      C1811   1.452       .  S
C1807      C1808   1.425       .  A
C1807      C1814   1.439   1_554  S
C1808      C1809   1.423       .  A
C1809      C1810   1.419       .  A
C1809      C1812   1.446       .  S
C1810      C1813   1.443       .  S
C1811      N1818   1.157       .  T
C1812      N1817   1.157       .  T
C1813      N1815   1.158       .  T
C1814      N4264   1.155       .  T
N1816      C4262   1.155       .  T
C1819      C1820   1.400       .  A
C1819      C1824   1.424       .  A
C1820      C1821   1.384       .  A
C1820      C1825   1.448       .  S
C1821      C1822   1.400       .  A
C1821      C1828   1.439       .  S
C1822      C1823   1.401       .  A
C1823      C1824   1.402       .  A
C1823      C1826   1.445       .  S
C1824      C1827   1.451       .  S
C1825      N4280   1.157       .  T
C1826      N1831   1.157       .  T
C1827      N1829   1.157       .  T
C1828      N1830   1.155       .  T
N1832      C4273   1.157       .  T
C1833      C1834   1.413       .  A
C1833      C4286   1.404       .  A
C1834      C1835   1.407       .  A
C1834      C1839   1.452       .  S
C1835      C1836   1.420       .  A
C1835      C1842   1.453       .  S
C1836      C1837   1.423       .  A
C1837      C4286   1.411       .  A
C1837      C4288   1.450       .  S
C1838      C4281   1.404   1_554  A
C1838      C4285   1.411   1_554  A
C1838      C1841   1.449       .  S
C1839      N1846   1.158       .  T
C1840      C4285   1.450   1_554  S
C1840      N1845   1.157       .  T
C1841      N1843   1.156       .  T
C1842      N1844   1.158       .  T
C1847      C1848   1.434   1_565  A
C1847      C1852   1.418       .  A
C1848      C1849   1.419       .  A
C1848      C1853   1.449       .  S
C1849      C1850   1.404       .  A
C1849      C1856   1.451       .  S
C1850      C1851   1.417   1_545  A
C1851      C1852   1.430       .  A
C1851      C1854   1.447       .  S
C1852      C1855   1.446       .  S
C1853      N1860   1.156       .  T
C1854      N1859   1.157       .  T
C1855      N1857   1.157       .  T
C1856      N1858   1.157       .  T
C1861      C1862   1.421       .  A
C1861      C1866   1.413       .  A
C1862      C1863   1.419       .  A
C1862      C1867   1.444       .  S
C1863      C1864   1.412   1_565  A
C1863      C1870   1.452   1_565  S
C1864      C1865   1.416   1_545  A
C1865      C1866   1.421       .  A
C1865      C1868   1.450       .  S
C1866      C1869   1.442       .  S
C1867      N1874   1.157       .  T
C1868      N1873   1.157       .  T
C1869      N1871   1.155       .  T
C1870      N1872   1.157       .  T
C1875      C1876   1.410       .  A
C1875      C1880   1.406       .  A
C1876      C1877   1.386   1_545  A
C1876      C1881   1.448       .  S
C1877      C1878   1.404       .  A
C1877      C4332   1.452       .  S
C1878      C1879   1.411   1_554  A
C1879      C1880   1.393   1_566  A
C1879      C1882   1.449       .  S
C1880      C1883   1.453   1_554  S
C1881      N1888   1.154       .  T
C1882      N1887   1.156       .  T
C1883      N1885   1.157       .  T
C1884      C4325   1.452       .  S
C1884      N1886   1.155       .  T
C1889      C1890   1.408       .  A
C1889      C1894   1.415       .  A
C1890      C1891   1.423       .  A
C1890      C1895   1.449       .  S
C1891      C1892   1.418       .  A
C1891      C1898   1.441       .  S
C1892      C1893   1.408       .  A
C1893      C1894   1.417       .  A
C1893      C1896   1.449       .  S
C1894      C1897   1.440       .  S
C1895      N1902   1.158       .  T
C1896      N1901   1.157       .  T
C1897      N1899   1.155       .  T
C1898      N1900   1.155       .  T
C1903      C1904   1.421       .  A
C1903      C1908   1.408       .  A
C1904      C1905   1.429       .  A
C1904      C1909   1.447       .  S
C1905      C1906   1.415       .  A
C1905      C1912   1.448       .  S
C1906      C3061   1.523   1_554  S
C1906      C1907   1.426       .  A
C1907      C1908   1.421       .  A
C1907      C1910   1.446   1_554  S
C1908      C1911   1.451       .  S
C1909      N1916   1.157       .  T
C1910      N4363   1.155       .  T
C1911      N1913   1.157       .  T
C1912      N1914   1.157       .  T
N1915      C4358   1.155       .  T
C1917      C1918   1.410       .  A
C1917      C1922   1.390       .  A
C1918      C1919   1.388       .  A
C1918      C1923   1.451       .  S
C1919      C1920   1.409       .  A
C1919      C1926   1.450       .  S
C1920      C1921   1.408       .  A
C1921      C1922   1.384       .  A
C1921      C1924   1.442       .  S
C1922      C1925   1.444       .  S
C1923      N1930   1.157       .  T
C1924      N1929   1.153       .  T
C1925      N1927   1.153       .  T
C1926      N1928   1.158       .  T
C1931      C1932   1.415       .  A
C1931      C1936   1.409       .  A
C1932      C1933   1.420       .  A
C1932      C1937   1.449       .  S
C1933      C1934   1.417       .  A
C1933      C1940   1.444       .  S
C1934      C1935   1.404       .  A
C1935      C1936   1.406       .  A
C1935      C1938   1.448       .  S
C1936      C1939   1.438       .  S
C1937      N1944   1.158       .  T
C1938      N1943   1.157       .  T
C1939      N1941   1.155       .  T
C1940      N1942   1.156       .  T
C1945      C1946   1.430       .  A
C1945      C1950   1.416       .  A
C1946      C1947   1.411       .  A
C1946      C1951   1.445       .  S
C1947      C1948   1.390       .  A
C1947      C1954   1.446       .  S
C1948      C1949   1.418       .  A
C1949      C1950   1.424       .  A
C1949      C1952   1.447       .  S
C1950      C1953   1.448       .  S
C1951      N1958   1.157       .  T
C1952      N1957   1.157       .  T
C1953      N1955   1.157       .  T
C1954      N1956   1.157       .  T
C1959      C1960   1.415       .  A
C1959      C1964   1.427       .  A
C1960      C1961   1.415       .  A
C1960      C1965   1.451       .  S
C1961      C1962   1.417       .  A
C1961      C1968   1.452       .  S
C1962      C1963   1.406       .  A
C1963      C1964   1.415       .  A
C1963      C1966   1.452       .  S
C1964      C1967   1.452       .  S
C1965      N1972   1.158       .  T
C1966      N1971   1.157       .  T
C1967      N1969   1.157       .  T
C1968      N1970   1.157       .  T
C1973      C1974   1.428       .  A
C1973      C1978   1.428       .  A
C1974      C1975   1.396       .  A
C1974      C1979   1.451       .  S
C1975      C1976   1.397       .  A
C1975      C1982   1.452       .  S
C1976      C1977   1.395       .  A
C1977      C1978   1.399       .  A
C1977      C1980   1.454       .  S
C1978      C1981   1.450   1_545  S
C1979      N1986   1.158       .  T
C1980      N1985   1.157       .  T
C1981      N1983   1.157       .  T
C1982      N1984   1.157       .  T
C1987      C1988   1.393       .  A
C1987      C1992   1.421   1_565  A
C1988      C1989   1.406       .  A
C1988      C1993   1.457       .  S
C1989      C1990   1.446   1_565  A
C1989      C1996   1.444       .  S
C1990      C1991   1.424       .  A
C1991      C1992   1.441       .  A
C1991      C1994   1.445       .  S
C1992      C1995   1.445       .  S
C1993      N2000   1.157       .  T
C1994      N1999   1.157       .  T
C1995      N1997   1.157       .  T
C1996      N1998   1.153       .  T
C2001      C2002   1.421       .  A
C2001      C2006   1.405       .  A
C2002      C2003   1.415       .  A
C2002      C2007   1.442       .  S
C2003      C2004   1.403       .  A
C2003      C2010   1.449       .  S
C2004      C2005   1.427       .  A
C2005      C2006   1.414       .  A
C2005      C2008   1.442       .  S
C2006      C2009   1.451   1_545  S
C2007      N2014   1.156       .  T
C2008      N2013   1.156       .  T
C2009      N2011   1.157       .  T
C2010      N2012   1.157       .  T
C2015      C2016   1.403       .  A
C2015      C2020   1.426       .  A
C2016      C2017   1.395       .  A
C2016      C2021   1.450       .  S
C2017      C2018   1.403       .  A
C2017      C2024   1.439       .  S
C2018      C2019   1.418       .  A
C2019      C2020   1.438       .  A
C2019      C2022   1.445       .  S
C2020      C2023   1.445       .  S
C2021      N2028   1.158       .  T
C2022      N2027   1.157       .  T
C2023      N2025   1.157       .  T
C2024      N2026   1.155       .  T
C2029      C2030   1.435       .  A
C2029      C2034   1.417       .  A
C2030      C2031   1.415       .  A
C2030      C2035   1.452       .  S
C2031      C2032   1.403       .  A
C2031      C2038   1.449       .  S
C2032      C2033   1.413       .  A
C2033      C2034   1.421       .  A
C2033      C2036   1.444       .  S
C2034      C2037   1.448       .  S
C2035      N2042   1.157       .  T
C2036      N2041   1.156       .  T
C2037      N2039   1.157       .  T
C2038      N2040   1.157       .  T
C2043      C2044   1.418       .  A
C2043      C2048   1.410       .  A
C2044      C2045   1.423       .  A
C2044      C2049   1.444       .  S
C2045      C2046   1.411       .  A
C2045      C2052   1.449       .  S
C2046      C2047   1.419       .  A
C2047      C2048   1.422       .  A
C2047      C2050   1.449       .  S
C2048      C2051   1.446       .  S
C2049      N2056   1.157       .  T
C2050      N2055   1.157       .  T
C2051      N2053   1.157       .  T
C2052      N2054   1.157       .  T
C2057      C2058   1.423       .  A
C2057      C2062   1.422       .  A
C2058      C2059   1.412       .  A
C2058      C2063   1.451       .  S
C2059      C2060   1.405       .  A
C2059      C2066   1.446       .  S
C2060      C2061   1.404       .  A
C2061      C2062   1.410       .  A
C2061      C2064   1.453       .  S
C2062      C2065   1.444       .  S
C2063      N2070   1.158       .  T
C2064      N2069   1.157       .  T
C2065      N2067   1.155       .  T
C2066      N2068   1.155       .  T
C2071      C2072   1.411       .  A
C2071      C4524   1.398       .  A
C2072      C2073   1.405   1_554  A
C2072      C2077   1.445       .  S
C2073      C2074   1.407       .  A
C2073      C2080   1.450       .  S
C2074      C4523   1.409       .  A
C2075      C2076   1.393       .  A
C2075      C4522   1.409       .  A
C2075      C2078   1.443       .  S
C2076      C4519   1.398       .  A
C2076      C2079   1.452       .  S
C2077      N2084   1.156       .  T
C2078      N2083   1.156       .  T
C2079      N2081   1.155       .  T
C2080      N2082   1.157       .  T
C2085      C2086   1.416       .  A
C2085      C2090   1.421       .  A
C2086      C2087   1.408       .  A
C2086      C2091   1.447       .  S
C2087      C2088   1.415       .  A
C2087      C2094   1.451       .  S
C2088      C2089   1.415       .  A
C2089      C2090   1.428       .  A
C2089      C2092   1.448       .  S
C2090      C2093   1.447       .  S
C2091      N2098   1.153       .  T
C2092      N2097   1.157       .  T
C2093      N2095   1.157       .  T
C2094      N2096   1.158       .  T
C2099      C2100   1.429       .  A
C2099      C2104   1.370       .  A
C2100      C2101   1.457       .  A
C2100      C2105   1.442       .  S
C2101      C2102   1.429       .  A
C2101      C2108   1.442       .  S
C2102      C2103   1.408       .  A
C2103      C2104   1.382       .  A
C2103      C2106   1.446       .  S
C2104      C2107   1.436       .  S
C2105      N2112   1.157       .  T
C2106      N2111   1.157       .  T
C2107      N2109   1.154       .  T
C2108      N2110   1.157       .  T
C2113      C2114   1.411       .  A
C2113      C2118   1.404       .  A
C2114      C2115   1.410       .  A
C2114      C4567   1.452       .  S
C2115      C2116   1.420       .  A
C2115      C4570   1.452       .  S
C2116      C2600   1.506       .  S
C2116      C2117   1.433       .  A
C2117      C2118   1.408       .  A
C2117      C2120   1.454       .  S
C2118      C2121   1.455       .  S
C2119      C4562   1.452       .  S
C2119      N2126   1.157       .  T
C2120      N2125   1.158       .  T
C2121      N2123   1.157       .  T
C2122      C4563   1.452       .  S
C2122      N2124   1.158       .  T
C2127      C2128   1.398       .  A
C2127      C2132   1.390       .  A
C2128      C2129   1.406       .  A
C2128      C2133   1.448       .  S
C2129      C2130   1.431       .  A
C2129      C2136   1.446       .  S
C2130      C2131   1.413       .  A
C2131      C2132   1.385       .  A
C2131      C2134   1.450       .  S
C2132      C2135   1.432       .  S
C2133      N2140   1.157       .  T
C2134      N2139   1.157       .  T
C2135      N4585   1.153       .  T
C2136      N2138   1.156       .  T
N2137      C4583   1.153       .  T
C2141      C2142   1.400       .  A
C2141      C2146   1.427       .  A
C2142      C2143   1.403       .  A
C2142      C2147   1.445       .  S
C2143      C2144   1.416       .  A
C2143      C2150   1.446       .  S
C2144      C2145   1.425       .  A
C2145      C2146   1.447       .  A
C2145      C2148   1.445       .  S
C2146      C2149   1.444       .  S
C2147      N2154   1.157       .  T
C2148      N2153   1.157       .  T
C2149      N2151   1.157       .  T
C2150      N2152   1.158       .  T
C2155      C2156   1.425       .  A
C2155      C2160   1.428       .  A
C2156      C2157   1.415       .  A
C2156      C2161   1.433       .  S
C2157      C2158   1.410       .  A
C2157      C2164   1.456       .  S
C2158      C2159   1.417       .  A
C2159      C2160   1.432       .  A
C2159      C2162   1.450       .  S
C2160      C2163   1.446       .  S
C2161      N2168   1.152       .  T
C2162      N2167   1.157       .  T
C2163      N2165   1.156       .  T
C2164      N2166   1.157       .  T
C2169      C2170   1.409       .  A
C2169      C2174   1.399       .  A
C2170      C2171   1.389       .  A
C2170      C2175   1.450       .  S
C2171      C2172   1.399       .  A
C2171      C2178   1.452       .  S
C2172      C2173   1.415       .  A
C2173      C2174   1.376       .  A
C2173      C2176   1.445       .  S
C2174      C2177   1.464       .  S
C2175      N2182   1.156       .  T
C2176      N2181   1.155       .  T
C2177      N2179   1.157       .  T
C2178      N2180   1.157       .  T
C2183      C2184   1.432       .  A
C2183      C2188   1.421       .  A
C2184      C2185   1.428       .  A
C2184      C2189   1.449       .  S
C2185      C2186   1.410       .  A
C2185      C2192   1.449       .  S
C2186      C2187   1.415       .  A
C2187      C2188   1.415       .  A
C2187      C2190   1.444       .  S
C2188      C2191   1.452       .  S
C2189      N2196   1.157       .  T
C2190      N2195   1.155       .  T
C2191      N2193   1.157       .  T
C2192      N2194   1.157       .  T
C2197      C2198   1.423       .  A
C2197      C2202   1.417       .  A
C2198      C2199   1.429       .  A
C2198      C2203   1.450       .  S
C2199      C2200   1.415       .  A
C2199      C2206   1.449       .  S
C2200      C2201   1.420       .  A
C2201      C2202   1.429       .  A
C2201      C2204   1.450   1_554  S
C2202      C2205   1.449       .  S
C2203      N2210   1.157       .  T
C2204      N4657   1.157       .  T
C2205      N2207   1.157       .  T
C2206      N2208   1.157       .  T
N2209      C4652   1.157       .  T
C2211      C2212   1.434       .  A
C2211      C2216   1.424       .  A
C2212      C2213   1.426       .  A
C2212      C2217   1.450       .  S
C2213      C2214   1.409       .  A
C2213      C2220   1.450       .  S
C2214      C2215   1.416       .  A
C2215      C2216   1.429       .  A
C2215      C2218   1.446       .  S
C2216      C2219   1.449       .  S
C2217      N2224   1.157       .  T
C2218      N2223   1.157       .  T
C2219      N2221   1.158       .  T
C2220      N2222   1.157       .  T
C2225      C2226   1.428       .  A
C2225      C2230   1.428       .  A
C2226      C2227   1.406       .  A
C2226      C2231   1.454       .  S
C2227      C2228   1.410       .  A
C2227      C2234   1.451       .  S
C2228      C2229   1.426       .  A
C2229      C2230   1.449       .  A
C2229      C2232   1.445       .  S
C2230      C2233   1.445       .  S
C2231      N2238   1.157   1_554  T
C2232      N2237   1.157       .  T
C2233      N2235   1.157       .  T
C2234      N2236   1.157       .  T
C2239      C2240   1.406       .  A
C2239      C2244   1.418       .  A
C2240      C2241   1.414       .  A
C2240      C2245   1.451       .  S
C2241      C2242   1.421       .  A
C2241      C2248   1.452       .  S
C2242      C2243   1.410       .  A
C2243      C2244   1.415       .  A
C2243      C2246   1.450       .  S
C2244      C2247   1.452       .  S
C2245      N2252   1.157       .  T
C2246      N2251   1.157       .  T
C2247      N2249   1.157       .  T
C2248      N2250   1.157       .  T
C2253      C2254   1.422       .  A
C2253      C2258   1.445   1_455  A
C2254      C2255   1.436   1_455  A
C2254      C2259   1.449       .  S
C2255      C2256   1.431       .  A
C2255      C2262   1.451   1_655  S
C2256      C2257   1.406       .  A
C2257      C2258   1.434       .  A
C2257      C2260   1.449       .  S
C2258      C2261   1.446       .  S
C2259      N2266   1.158       .  T
C2260      N2265   1.157       .  T
C2261      N2263   1.156       .  T
C2262      N2264   1.157       .  T
C2267      C2268   1.414       .  A
C2267      C2272   1.419       .  A
C2268      C2269   1.420       .  A
C2268      C2273   1.449       .  S
C2269      C2270   1.415   1_455  A
C2269      C2276   1.446       .  S
C2270      C2271   1.403       .  A
C2271      C2272   1.418   1_655  A
C2271      C2274   1.449       .  S
C2272      C2275   1.434       .  S
C2273      N2280   1.157       .  T
C2274      N2279   1.157       .  T
C2275      N2277   1.153       .  T
C2276      N2278   1.158       .  T
C2281      C2282   1.389       .  A
C2281      C2286   1.408       .  A
C2282      C2283   1.387       .  A
C2282      C2287   1.451       .  S
C2283      C2284   1.414   1_455  A
C2283      C2290   1.440       .  S
C2284      C2285   1.397   1_655  A
C2285      C2286   1.379       .  A
C2285      C2288   1.458   1_455  S
C2286      C2289   1.437       .  S
C2287      N2294   1.157       .  T
C2288      N2293   1.157       .  T
C2289      N2291   1.151       .  T
C2290      N2292   1.152       .  T
C2295      C2296   1.425       .  A
C2295      C2300   1.410       .  A
C2296      C2297   1.428       .  A
C2296      C2301   1.449       .  S
C2297      C2298   1.414       .  A
C2297      C2304   1.449       .  S
C2298      C2299   1.425       .  A
C2299      C2300   1.416       .  A
C2299      C2302   1.444       .  S
C2300      C2303   1.454       .  S
C2301      N2308   1.157       .  T
C2302      N2307   1.155       .  T
C2303      N2305   1.158       .  T
C2304      N2306   1.157       .  T
C2309      C2310   1.413       .  A
C2309      C2314   1.417       .  A
C2310      C2311   1.412       .  A
C2310      C2315   1.444   1_554  S
C2311      C2312   1.410       .  A
C2311      C2318   1.448       .  S
C2312      C2313   1.417       .  A
C2313      C2314   1.423       .  A
C2313      C2316   1.443       .  S
C2314      C2317   1.447       .  S
C2315      N2322   1.157       .  T
C2316      N2321   1.155       .  T
C2317      N2319   1.157       .  T
C2318      N2320   1.157   1_554  T
C2323      C2324   1.417       .  A
C2323      C2328   1.408       .  A
C2324      C2325   1.424       .  A
C2324      C2329   1.448       .  S
C2325      C2326   1.415       .  A
C2325      C2332   1.449       .  S
C2326      C2327   1.419       .  A
C2327      C2328   1.424       .  A
C2327      C2330   1.438       .  S
C2328      C2331   1.449       .  S
C2329      N2336   1.157       .  T
C2330      N2335   1.153       .  T
C2331      N2333   1.157       .  T
C2332      N2334   1.157       .  T
C2337      C2338   1.403       .  A
C2337      C2342   1.399       .  A
C2338      C2339   1.417       .  A
C2338      C4791   1.444       .  S
C2339      C2340   1.424       .  A
C2339      C2346   1.449       .  S
C2340      C2341   1.426       .  A
C2341      C2342   1.417       .  A
C2341      C2344   1.436       .  S
C2342      C2345   1.449       .  S
C2343      C4786   1.444       .  S
C2343      N2350   1.156       .  T
C2344      N2349   1.155       .  T
C2345      N2347   1.156       .  T
C2346      N2348   1.157       .  T
C2351      C2352   1.398       .  A
C2351      C2356   1.408       .  A
C2352      C2353   1.392       .  A
C2352      C2357   1.447       .  S
C2353      C2354   1.410       .  A
C2353      C2360   1.453       .  S
C2354      C2355   1.401       .  A
C2355      C2356   1.391       .  A
C2355      C2358   1.447       .  S
C2356      C2359   1.453       .  S
C2357      N2364   1.156       .  T
C2358      N4811   1.155       .  T
C2359      N2361   1.157       .  T
C2360      N2362   1.157       .  T
N2363      C4806   1.155       .  T
C2365      C2366   1.424       .  A
C2365      C2370   1.425       .  A
C2366      C2367   1.405       .  A
C2366      C2371   1.447       .  S
C2367      C2368   1.390       .  A
C2367      C2374   1.435       .  S
C2368      C2369   1.425       .  A
C2369      C2370   1.444       .  A
C2369      C2372   1.445       .  S
C2370      C2373   1.445       .  S
C2371      N2378   1.156       .  T
C2372      N2377   1.157       .  T
C2373      N2375   1.157       .  T
C2374      N2376   1.154       .  T
C2379      C2380   1.405       .  A
C2379      C2384   1.418       .  A
C2380      C2381   1.422       .  A
C2380      C2385   1.449       .  S
C2381      C2382   1.432       .  A
C2381      C2388   1.452       .  S
C2382      C2383   1.412       .  A
C2383      C2384   1.424       .  A
C2383      C2386   1.447       .  S
C2384      C2387   1.443       .  S
C2385      N2392   1.157       .  T
C2386      N2391   1.157       .  T
C2387      N2389   1.156       .  T
C2388      N2390   1.158       .  T
C2393      C2394   1.408       .  A
C2393      C2398   1.413       .  A
C2394      C2395   1.406       .  A
C2394      C2399   1.452       .  S
C2395      C2396   1.415       .  A
C2395      C2402   1.452       .  S
C2396      C2397   1.410       .  A
C2397      C2398   1.410       .  A
C2397      C2400   1.451       .  S
C2398      C2401   1.451       .  S
C2399      N2406   1.157       .  T
C2400      N4853   1.157       .  T
C2401      N2403   1.157       .  T
C2402      N2404   1.157       .  T
N2405      C4848   1.157       .  T
C2407      C2412   1.408       .  A
C2407      C4856   1.400   1_554  A
C2408      C2409   1.373       .  A
C2408      C4855   1.400       .  A
C2408      C2413   1.447       .  S
C2409      C4858   1.409       .  A
C2409      C2416   1.457       .  S
C2410      C2411   1.401       .  A
C2410      C4857   1.409       .  A
C2411      C2412   1.380       .  A
C2411      C2414   1.449   1_455  S
C2412      C2415   1.454       .  S
C2413      N2420   1.154       .  T
C2414      N2419   1.156       .  T
C2415      N2417   1.158   1_455  T
C2416      N2418   1.158       .  T
C2421      C2422   1.426   1_455  A
C2421      C2426   1.405       .  A
C2422      C2423   1.427       .  A
C2422      C2427   1.449       .  S
C2423      C2424   1.412       .  A
C2423      C2430   1.447       .  S
C2424      C2425   1.431   1_655  A
C2425      C2426   1.422       .  A
C2425      C2428   1.449       .  S
C2426      C2429   1.450       .  S
C2427      N2434   1.157       .  T
C2428      N2433   1.156       .  T
C2429      N2431   1.157       .  T
C2430      N2432   1.157       .  T
C2435      C2436   1.420       .  A
C2435      C2440   1.432       .  A
C2436      C2437   1.423   1_455  A
C2436      C2441   1.448       .  S
C2437      C2438   1.412       .  A
C2437      C2444   1.446       .  S
C2438      C2439   1.393       .  A
C2439      C2440   1.409   1_655  A
C2439      C2442   1.456       .  S
C2440      C2443   1.442       .  S
C2441      N2448   1.157       .  T
C2442      N2447   1.157       .  T
C2443      N2445   1.156       .  T
C2444      N2446   1.157       .  T
O2449     Ni2455   1.930       .  S
O2449      C2470   1.283       .  A
O2450     Ni2473   1.839       .  S
O2451     Ni2455   1.883       .  S
O2451     Ni2473   1.868       .  S
O2451      H2474   0.967       .  S
C2452      O2469   1.314       .  A
C2452      O2461   1.268       .  A
C2452      C4869   1.504       .  S
O2453     Ni2472   1.870       .  S
O2453      C2459   1.245       .  A
O2454     Ni2472   1.906       .  S
O2454      C2456   1.257       .  A
Ni2455     O2458   2.007       .  S
Ni2455     O2460   1.948       .  S
C2456      O2466   1.279       .  A
C2456      C4813   1.543       .  S
O2457     Ni2473   1.874       .  S
O2457      C2463   1.262       .  A
O2458      C2463   1.295       .  A
C2459      C4855   1.406       .  S
O2460      C2462   1.268       .  A
O2461     Ni2472   1.860       .  S
C2462      O2468   1.259       .  A
C2462      C4883   1.515       .  S
C2463      C4830   1.527       .  S
H2464      O2465   0.959       .  S
O2465     Ni2467   1.854       .  S
O2465     Ni2472   1.865       .  S
O2466     Ni2467   2.004       .  S
Ni2467     O2471   1.911       .  S
Ni2467     O2469   2.032       .  S
O2468     Ni2473   1.921       .  S
C2470      C4844   1.473       .  S
O2475      C2496   1.283       .  A
O2476     Ni2499   1.855       .  S
O2476      C2485   1.267       .  A
O2477     Ni2499   1.851       .  S
O2477     Ni2493   1.914       .  S
O2477      H2500   0.966       .  S
C2478      O2495   1.280       .  A
C2478      O2487   1.239       .  A
C2478      C4774   1.507       .  S
O2479     Ni2498   1.877       .  S
O2479      C2485   1.258       .  A
O2480     Ni2498   1.895       .  S
O2480      C2482   1.282       .  A
Ni2481     O2484   1.960       .  S
Ni2481     O2486   1.945       .  S
C2482      O2492   1.316       .  A
C2482      C4746   1.518       .  S
O2483      C2489   1.283       .  A
O2484      C2489   1.287       .  A
C2485      C4802   1.421       .  S
O2486      C2488   1.272       .  A
O2487     Ni2498   1.873       .  S
C2488      O2494   1.258       .  A
C2488      C4785   1.489       .  S
C2489      C4757   1.517       .  S
H2490      O2491   0.966       .  S
O2491     Ni2499   1.925       .  S
O2491     Ni2493   1.854       .  S
O2491     Ni2498   1.881       .  S
O2492     Ni2493   2.037       .  S
Ni2493     O2497   1.909       .  S
Ni2493     O2495   2.003       .  S
C2496      O2497   1.289       .  A
C2496      C4841   1.469       .  S
O2501     Ni2507   1.904       .  S
O2501      C2522   1.265       .  A
O2502     Ni2525   1.948       .  S
O2502      C2511   1.298       .  A
O2503     Ni2507   1.880       .  S
O2503     Ni2525   1.872       .  S
O2503     Ni2519   1.933       .  S
O2503      H2526   0.963       .  S
C2504      O2521   1.240       .  A
C2504      O2513   1.285       .  A
C2504      C4816   1.513       .  S
O2505     Ni2524   1.912       .  S
O2505      C2511   1.282       .  A
O2506     Ni2524   1.893       .  S
O2506      C2508   1.260       .  A
Ni2507     O2510   1.920       .  S
Ni2507     O2512   1.885       .  S
C2508      O2518   1.292       .  A
C2508      C4715   1.514       .  S
O2509     Ni2525   2.032       .  S
O2509      C2515   1.315       .  A
O2510      C2515   1.281       .  A
C2511      C4687   1.481       .  S
O2512      C2514   1.258       .  A
O2513     Ni2524   2.022       .  S
C2514      O2520   1.285       .  A
C2514      C4827   1.503       .  S
C2515      C4701   1.565       .  S
H2516      O2517   0.966       .  S
O2517     Ni2525   1.952       .  S
O2517     Ni2519   1.840       .  S
O2517     Ni2524   1.914       .  S
O2518     Ni2519   2.000       .  S
Ni2519     O2523   1.861       .  S
Ni2519     O2521   1.892       .  S
O2520     Ni2525   1.991       .  S
C2522      O2523   1.244       .  A
C2522      C4729   1.427       .  S
O2527     Ni2533   1.878       .  S
O2527      C2548   1.247       .  A
O2528     Ni2551   1.931       .  S
O2528      C2537   1.293       .  A
O2529     Ni2533   1.893       .  S
O2529     Ni2551   1.872       .  S
O2529     Ni2545   1.933       .  S
O2529      H2552   0.964       .  S
C2530      O2547   1.269       .  A
C2530      O2539   1.290       .  A
C2530      C4659   1.543       .  S
O2531     Ni2550   1.935       .  S
O2531      C2537   1.282       .  A
O2532     Ni2550   1.921       .  S
O2532      C2534   1.268       .  A
Ni2533     O2536   1.861       .  S
Ni2533     O2538   1.877       .  S
C2534      O2544   1.277       .  A
C2534      C4631   1.530       .  S
O2535     Ni2551   2.053       .  S
O2535      C2541   1.318       .  A
O2536      C2541   1.264       .  A
C2537      C4690   1.491       .  S
O2538      C2540   1.239       .  A
O2539     Ni2550   1.994       .  S
C2540      O2546   1.281       .  A
C2540      C4673   1.546       .  S
C2541      C4645   1.508       .  S
H2542      O2543   0.966       .  S
O2543     Ni2551   1.943       .  S
O2543     Ni2545   1.870       .  S
O2543     Ni2550   1.893       .  S
O2544     Ni2545   1.955       .  S
Ni2545     O2549   1.860       .  S
Ni2545     O2547   1.907       .  S
O2546     Ni2551   2.037       .  S
C2548      O2549   1.258       .  A
C2548      C4620   1.415       .  S
O2553      C2574   1.270   1_554  A
O2554     Ni2577   1.890       .  S
O2554      C2563   1.249       .  A
O2555     Ni2577   1.848       .  S
O2555     Ni2571   1.981       .  S
O2555      H2578   0.966       .  S
C2556      O2573   1.286       .  A
C2556      O2565   1.261       .  A
C2556      C4589   1.512       .  S
O2557     Ni2576   1.887       .  S
O2557      C2563   1.259       .  A
O2558     Ni2576   1.919       .  S
O2558      C2560   1.285       .  A
Ni2559     O2562   1.990       .  S
Ni2559     O2564   1.967       .  S
C2560      O2570   1.297       .  A
C2560      C4533   1.514       .  S
O2561      C2567   1.271       .  A
O2562      C2567   1.292       .  A
C2563      C4575   1.448       .  S
O2564      C2566   1.271       .  A
O2565     Ni2576   1.883       .  S
C2566      C4603   1.541       .  S
C2567      C4547   1.503       .  S
H2568      O2569   0.959       .  S
O2569     Ni2577   1.980       .  S
O2569     Ni2571   1.870       .  S
O2569     Ni2576   1.847       .  S
O2570     Ni2571   1.977       .  S
Ni2571     O2575   1.942       .  S
Ni2571     O2573   1.989       .  S
O2572     Ni2577   1.954   1_554  S
C2574      O2575   1.281       .  A
C2574      C4561   1.474       .  S
O2579     Ni2585   1.933       .  S
O2580     Ni2603   1.851       .  S
O2581     Ni2585   1.909   1_554  S
O2581     Ni2603   1.861       .  S
O2581      H2604   0.965       .  S
C2582      O2599   1.287       .  A
C2582      O2591   1.257       .  A
C2582      C4491   1.502       .  S
O2583     Ni2602   1.867       .  S
O2583      C2589   1.251       .  A
O2584     Ni2602   1.887       .  S
O2584      C2586   1.271       .  A
Ni2585     O2588   1.988       .  S
Ni2585     O2590   1.902       .  S
C2586      O2596   1.290       .  A
C2586      C4480   1.491       .  S
O2587     Ni2603   1.899   1_556  S
O2587      C2593   1.268       .  A
O2588      C2593   1.284       .  A
C2589      C4519   1.450       .  S
O2590      C2592   1.264       .  A
O2591     Ni2602   1.876       .  S
C2592      O2598   1.270       .  A
C2592      C4508   1.478       .  S
C2593      C4466   1.510       .  S
H2594      O2595   0.962       .  S
O2595     Ni2597   1.900       .  S
O2595     Ni2602   1.933       .  S
O2596     Ni2597   1.971       .  S
Ni2597     O2601   1.909       .  S
Ni2597     O2599   1.988       .  S
O2598     Ni2603   1.940   1_556  S
C2600      O2601   1.281       .  A
O2605     Ni2611   1.891       .  S
O2605      C2626   1.264       .  A
O2606     Ni2629   1.930       .  S
O2606      C2615   1.288       .  A
O2607     Ni2611   1.888       .  S
O2607     Ni2629   1.878       .  S
O2607     Ni2623   1.930       .  S
O2607      H2630   0.959       .  S
C2608      O2625   1.282       .  A
C2608      O2617   1.287       .  A
C2608      C4379   1.511       .  S
O2609     Ni2628   1.923       .  S
O2609      C2615   1.277       .  A
O2610     Ni2628   1.942       .  S
O2610      C2612   1.271       .  A
Ni2611     O2614   1.880       .  S
Ni2611     O2616   1.891       .  S
C2612      O2622   1.257       .  A
C2612      C4449   1.499   1_565  S
O2613     Ni2629   1.974       .  S
O2613      C2619   1.272       .  A
O2614      C2619   1.257       .  A
C2615      C4407   1.505       .  S
O2616      C2618   1.279       .  A
O2617     Ni2628   1.959       .  S
C2618      O2624   1.313       .  A
C2618      C4393   1.508       .  S
C2619      C4435   1.508       .  S
H2620      O2621   0.967       .  S
O2621     Ni2629   1.897       .  S
O2621     Ni2623   1.869       .  S
O2621     Ni2628   1.885       .  S
O2622     Ni2623   1.906       .  S
Ni2623     O2627   1.894       .  S
Ni2623     O2625   1.919       .  S
O2624     Ni2629   2.023       .  S
C2626      O2627   1.265       .  A
C2626      C4421   1.484   1_565  S
O2631     Ni2637   1.901       .  S
O2631      C2652   1.260       .  A
O2632     Ni2655   1.926       .  S
O2632      C2641   1.293       .  A
O2633     Ni2637   1.857       .  S
O2633     Ni2655   1.870       .  S
O2633     Ni2649   1.905       .  S
O2633      H2656   0.961       .  S
C2634      O2651   1.260       .  A
C2634      O2643   1.286       .  A
C2634      C4536   1.501       .  S
O2635     Ni2654   1.936       .  S
O2635      C2641   1.286       .  A
O2636     Ni2654   1.931       .  S
O2636      C2638   1.271       .  A
Ni2637     O2640   1.877       .  S
Ni2637     O2642   1.904       .  S
C2638      O2648   1.272       .  A
C2638      C4340   1.505       .  S
O2639     Ni2655   2.027       .  S
O2639      C2645   1.309       .  A
O2640      C2645   1.265       .  A
C2641      C4410   1.488       .  S
O2642      C2644   1.252       .  A
O2643     Ni2654   1.998       .  S
C2644      O2650   1.287       .  A
C2644      C4550   1.534       .  S
C2645      C4351   1.496       .  S
H2646      O2647   0.967       .  S
O2647     Ni2655   1.941       .  S
O2647     Ni2649   1.858       .  S
O2647     Ni2654   1.901       .  S
O2648     Ni2649   1.952       .  S
Ni2649     O2653   1.835       .  S
Ni2649     O2651   1.889       .  S
O2650     Ni2655   2.028       .  S
C2652      O2653   1.247       .  A
C2652      C4368   1.426       .  S
O2657     Ni2663   1.898       .  S
O2657      C2678   1.270       .  A
O2658     Ni2681   1.888       .  S
O2659     Ni2663   1.911       .  S
O2659     Ni2681   1.878       .  S
O2659      H2682   0.966   1_556  S
C2660      O2677   1.313       .  A
C2660      O2669   1.277       .  A
C2660      C4295   1.529       .  S
O2661     Ni2680   1.882       .  S
O2661      C2667   1.248       .  A
O2662     Ni2680   1.891       .  S
O2662      C2664   1.250       .  A
Ni2663     O2666   1.982       .  S
Ni2663     O2668   1.941       .  S
C2664      O2674   1.267       .  A
C2664      C4382   1.487       .  S
O2665     Ni2681   1.878       .  S
O2665      C2671   1.255       .  A
O2666      C2671   1.286       .  A
C2667      C4326   1.436       .  S
O2668      C2670   1.263       .  A
O2669     Ni2680   1.878       .  S
C2670      O2676   1.272       .  A
C2670      C4309   1.517       .  S
C2671      C4396   1.499       .  S
H2672      O2673   0.960       .  S
O2673     Ni2675   1.893       .  S
O2673     Ni2680   1.894       .  S
O2674     Ni2675   1.963       .  S
Ni2675     O2679   1.941       .  S
Ni2675     O2677   2.033       .  S
O2676     Ni2681   1.960       .  S
C2678      C4281   1.477       .  S
O2683     Ni2689   1.960   1_556  S
O2683      C2704   1.289       .  A
O2684     Ni2707   1.835       .  S
O2684      C2693   1.248       .  A
O2685     Ni2689   1.903   1_556  S
O2685     Ni2707   1.862       .  S
O2685     Ni2701   1.921       .  S
O2685      H2708   0.966       .  S
C2686      O2703   1.273       .  A
C2686      O2695   1.245       .  A
C2686      C4239   1.525       .  S
O2687     Ni2706   1.825       .  S
O2687      C2693   1.263       .  A
O2688     Ni2706   1.861       .  S
O2688      C2690   1.262       .  A
C2690      O2700   1.312       .  A
C2690      C4662   1.505       .  S
O2691      C2697   1.266       .  A
O2692      C2697   1.292       .  A
C2693      C4267   1.398       .  S
O2694      C2696   1.272       .  A
O2695     Ni2706   1.872       .  S
C2696      C4256   1.520       .  S
C2697      C4676   1.535       .  S
H2698      O2699   0.960       .  S
O2699     Ni2707   1.925       .  S
O2699     Ni2701   1.850       .  S
O2699     Ni2706   1.896       .  S
O2700     Ni2701   2.046       .  S
Ni2701     O2705   1.874       .  S
Ni2701     O2703   1.991       .  S
O2702     Ni2707   1.947   1_554  S
C2704      O2705   1.275       .  A
C2704      C4284   1.500       .  S
O2709     Ni2715   1.919       .  S
O2709      C2730   1.262       .  A
O2710     Ni2733   1.951       .  S
O2710      C2719   1.286       .  A
O2711     Ni2715   1.903       .  S
O2711     Ni2733   1.884       .  S
O2711     Ni2727   1.912       .  S
O2711      H2734   0.961       .  S
C2712      O2729   1.259       .  A
C2712      O2721   1.285       .  A
C2712      C4743   1.514       .  S
O2713     Ni2732   1.890       .  S
O2713      C2719   1.271       .  A
O2714     Ni2732   1.930       .  S
O2714      C2716   1.265       .  A
Ni2715     O2718   1.885       .  S
Ni2715     O2720   1.901       .  S
C2716      O2726   1.269       .  A
C2716      C4225   1.517       .  S
O2717     Ni2733   2.020       .  S
O2717      C2723   1.309       .  A
O2718      C2723   1.275       .  A
C2719      C4183   1.482       .  S
O2720      C2722   1.256       .  A
O2721     Ni2732   1.982       .  S
C2722      O2728   1.274       .  A
C2722      C4760   1.502       .  S
C2723      C4211   1.510       .  S
H2724      O2725   0.966       .  S
O2725     Ni2733   1.988       .  S
O2725     Ni2727   1.871       .  S
O2725     Ni2732   1.923       .  S
O2726     Ni2727   1.951       .  S
Ni2727     O2731   1.843       .  S
Ni2727     O2729   1.896       .  S
O2728     Ni2733   1.971       .  S
C2730      O2731   1.251       .  A
C2730      C4200   1.461       .  S
O2735     Ni2741   1.877       .  S
O2735      C2756   1.263       .  A
O2736     Ni2759   1.933       .  S
O2736      C2745   1.289       .  A
O2737     Ni2741   1.888       .  S
O2737     Ni2759   1.903       .  S
O2737     Ni2753   1.962       .  S
O2737      H2760   0.957       .  S
C2738      O2755   1.259       .  A
C2738      O2747   1.293       .  A
C2738      C4477   1.524       .  S
O2739     Ni2758   1.935       .  S
O2739      C2745   1.279       .  A
O2740     Ni2758   1.895       .  S
O2740      C2742   1.261       .  A
Ni2741     O2744   1.899       .  S
Ni2741     O2746   1.890       .  S
C2742      O2752   1.278       .  A
C2742      C4172   1.490       .  S
O2743     Ni2759   2.018       .  S
O2743      C2749   1.303       .  A
O2744      C2749   1.271       .  A
C2745      C4186   1.485       .  S
O2746      C2748   1.266       .  A
O2747     Ni2758   2.003       .  S
C2748      O2754   1.274       .  A
C2748      C4463   1.509       .  S
C2749      C4155   1.516       .  S
H2750      O2751   0.966       .  S
O2751     Ni2759   1.927       .  S
O2751     Ni2753   1.859       .  S
O2751     Ni2758   1.880       .  S
O2752     Ni2753   1.964       .  S
Ni2753     O2757   1.897       .  S
Ni2753     O2755   1.874       .  S
O2754     Ni2759   1.966       .  S
C2756      O2757   1.240       .  A
C2756      C4141   1.487       .  S
O2761     Ni2767   1.954       .  S
O2761      C2782   1.285       .  A
O2762     Ni2785   1.912       .  S
O2762      C2771   1.273       .  A
O2763     Ni2767   1.884       .  S
O2763     Ni2785   1.885       .  S
O2763     Ni2779   1.934       .  S
O2763      H2786   0.966       .  S
C2764      O2781   1.312       .  A
C2764      O2773   1.274       .  A
C2764      C4057   1.510       .  S
O2765     Ni2784   1.897       .  S
O2765      C2771   1.250       .  A
O2766     Ni2784   1.900       .  S
O2766      C2768   1.258       .  A
Ni2767     O2770   1.985       .  S
Ni2767     O2772   1.919       .  S
C2768      O2778   1.270       .  A
C2768      C4099   1.513       .  S
O2769     Ni2785   1.874       .  S
O2769      C2775   1.264       .  A
O2770      C2775   1.289       .  A
C2771      C4085   1.449       .  S
O2772      C2774   1.274       .  A
O2773     Ni2784   1.894       .  S
C2774      O2780   1.281       .  A
C2774      C4074   1.514       .  S
C2775      C4116   1.521       .  S
H2776      O2777   0.966       .  S
O2777     Ni2785   1.902       .  S
O2777     Ni2779   1.875       .  S
O2777     Ni2784   1.870       .  S
O2778     Ni2779   1.979       .  S
Ni2779     O2783   1.916       .  S
Ni2779     O2781   2.031       .  S
O2780     Ni2785   1.956       .  S
C2782      O2783   1.285       .  A
C2782      C4127   1.497       .  S
O2787     Ni2793   1.934       .  S
O2787      C2808   1.283       .  A
O2788     Ni2811   1.874       .  S
O2788      C2797   1.241       .  A
O2789     Ni2793   1.899       .  S
O2789     Ni2811   1.871       .  S
O2789     Ni2805   1.942       .  S
O2789      H2812   0.966       .  S
C2790      O2807   1.300       .  A
C2790      O2799   1.276       .  A
C2790      C4771   1.508       .  S
O2791     Ni2810   1.889       .  S
O2791      C2797   1.265       .  A
O2792     Ni2810   1.893       .  S
O2792      C2794   1.259       .  A
Ni2793     O2796   1.996       .  S
Ni2793     O2798   1.911       .  S
C2794      O2804   1.289       .  A
C2794      C4043   1.504       .  S
O2795     Ni2811   1.885       .  S
O2795      C2801   1.253       .  A
O2796      C2801   1.287       .  A
C2797      C4197   1.470       .  S
O2798      C2800   1.268       .  A
O2799     Ni2810   1.905       .  S
C2800      O2806   1.289       .  A
C2800      C4788   1.522       .  S
C2801      C4032   1.520       .  S
H2802      O2803   0.952       .  S
O2803     Ni2811   1.942       .  S
O2803     Ni2805   1.860       .  S
O2803     Ni2810   1.884       .  S
O2804     Ni2805   1.990       .  S
Ni2805     O2809   1.929       .  S
Ni2805     O2807   1.998       .  S
O2806     Ni2811   1.997       .  S
C2808      O2809   1.289       .  A
C2808      C4130   1.496       .  S
O2813     Ni2819   1.875       .  S
O2813      C2834   1.258       .  A
O2814     Ni2837   1.924       .  S
O2814      C2823   1.292       .  A
O2815     Ni2819   1.889       .  S
O2815     Ni2837   1.865       .  S
O2815     Ni2831   1.927       .  S
O2815      H2838   0.966       .  S
C2816      O2833   1.281       .  A
C2816      O2825   1.291       .  A
C2816      C4046   1.526       .  S
O2817     Ni2836   1.941       .  S
O2817      C2823   1.287       .  A
O2818     Ni2836   1.945       .  S
O2818      C2820   1.271       .  A
Ni2819     O2822   1.873   1_556  S
Ni2819     O2824   1.892       .  S
C2820      O2830   1.257       .  A
C2820      C4228   1.486       .  S
O2821     Ni2837   1.998       .  S
O2821      C2827   1.278   1_556  A
O2822      C2827   1.242       .  A
C2823      C4015   1.500       .  S
O2824      C2826   1.279       .  A
O2825     Ni2836   1.979       .  S
C2826      O2832   1.319       .  A
H2828      O2829   0.966       .  S
O2829     Ni2837   1.909       .  S
O2829     Ni2831   1.860       .  S
O2829     Ni2836   1.879       .  S
O2830     Ni2831   1.893       .  S
Ni2831     O2835   1.864       .  S
Ni2831     O2833   1.929       .  S
O2832     Ni2837   2.043       .  S
C2834      O2835   1.268       .  A
C2834      C4799   1.419       .  S
O2839     Ni2845   1.879       .  S
O2839      C2860   1.258       .  A
O2840     Ni2863   1.922       .  S
O2840      C2849   1.286       .  A
O2841     Ni2845   1.920       .  S
O2841     Ni2863   1.892       .  S
O2841     Ni2857   1.927       .  S
O2841      H2864   0.966       .  S
C2842      O2859   1.262       .  A
C2842      O2851   1.286       .  A
C2842      C3948   1.513       .  S
O2843     Ni2862   1.947       .  S
O2843      C2849   1.285       .  A
O2844     Ni2862   1.928       .  S
O2844      C2846   1.272       .  A
Ni2845     O2848   1.863       .  S
Ni2845     O2850   1.889       .  S
C2846      O2856   1.272       .  A
C2846      C3987   1.527       .  S
O2847     Ni2863   2.008       .  S
O2847      C2853   1.300       .  A
O2848      C2853   1.260       .  A
C2849      C4018   1.496       .  S
O2850      C2852   1.258       .  A
O2851     Ni2862   1.982       .  S
C2852      O2858   1.279       .  A
C2852      C3959   1.498       .  S
C2853      C4001   1.497       .  S
H2854      O2855   0.965       .  S
O2855     Ni2863   1.931       .  S
O2855     Ni2857   1.874       .  S
O2855     Ni2862   1.901       .  S
O2856     Ni2857   1.934       .  S
Ni2857     O2861   1.862       .  S
Ni2857     O2859   1.877       .  S
O2858     Ni2863   1.974       .  S
C2860      O2861   1.252       .  A
C2860      C3973   1.445       .  S
O2865     Ni2871   1.871       .  S
O2865      C2886   1.242       .  A
O2866     Ni2889   1.941       .  S
O2866      C2875   1.290       .  A
O2867     Ni2871   1.911       .  S
O2867     Ni2889   1.868       .  S
O2867     Ni2883   1.904       .  S
O2867      H2890   0.960       .  S
C2868      O2885   1.252       .  A
C2868      O2877   1.287       .  A
C2868      C3864   1.514       .  S
O2869     Ni2888   1.904       .  S
O2869      C2875   1.279       .  A
O2870     Ni2888   1.903       .  S
O2870      C2872   1.256       .  A
Ni2871     O2874   1.853       .  S
Ni2871     O2876   1.900       .  S
C2872      O2882   1.271       .  A
C2872      C3903   1.487       .  S
O2873     Ni2889   2.077       .  S
O2873      C2879   1.328       .  A
O2874      C2879   1.265       .  A
C2875      C3889   1.469       .  S
O2876      C2878   1.256       .  A
O2877     Ni2888   2.016       .  S
C2878      O2884   1.266       .  A
C2878      C3878   1.504       .  S
C2879      C3917   1.526       .  S
H2880      O2881   0.966       .  S
O2881     Ni2889   2.001       .  S
O2881     Ni2883   1.861       .  S
O2881     Ni2888   1.932       .  S
O2882     Ni2883   1.953       .  S
Ni2883     O2887   1.850       .  S
Ni2883     O2885   1.877       .  S
O2884     Ni2889   1.963       .  S
C2886      O2887   1.238       .  A
C2886      C3931   1.409       .  S
O2891     Ni2897   1.890       .  S
O2891      C2912   1.266       .  A
O2892     Ni2915   1.914       .  S
O2892      C2901   1.294       .  A
O2893     Ni2897   1.860       .  S
O2893     Ni2915   1.842       .  S
O2893     Ni2909   1.950       .  S
O2893      H2916   0.966       .  S
C2894      O2911   1.282       .  A
C2894      O2903   1.302       .  A
C2894      C3833   1.533       .  S
O2895     Ni2914   1.927       .  S
O2895      C2901   1.281       .  A
O2896     Ni2914   1.956       .  S
O2896      C2898   1.265       .  A
Ni2897     O2902   1.901       .  S
C2898      O2908   1.252       .  A
C2898      C4634   1.514       .  S
O2899     Ni2915   2.002       .  S
O2900      C2905   1.254       .  A
C2901      C3892   1.477       .  S
O2902      C2904   1.282   1_556  A
O2903     Ni2914   2.000       .  S
C2904      O2910   1.319   1_554  A
C2905      C4648   1.518       .  S
H2906      O2907   0.967       .  S
O2907     Ni2915   1.927       .  S
O2907     Ni2909   1.825       .  S
O2907     Ni2914   1.865       .  S
O2908     Ni2909   1.925       .  S
Ni2909     O2913   1.827       .  S
Ni2909     O2911   1.915       .  S
O2910     Ni2915   2.049       .  S
C2912      O2913   1.262       .  A
C2912      C4270   1.471       .  S
O2917     Ni2923   1.898       .  S
O2917      C2938   1.271       .  A
O2918     Ni2941   1.867       .  S
O2918      C2927   1.254       .  A
O2919     Ni2923   1.904       .  S
O2919     Ni2941   1.880       .  S
O2919     Ni2935   1.972       .  S
O2919      H2942   0.965       .  S
C2920      O2937   1.307       .  A
C2920      O2929   1.274       .  A
O2921     Ni2940   1.930       .  S
O2921      C2927   1.267       .  A
O2922     Ni2940   1.906       .  S
O2922      C2924   1.258       .  A
Ni2923     O2926   1.986       .  S
Ni2923     O2928   1.942       .  S
C2924      O2934   1.265       .  A
C2924      C3945   1.490       .  S
O2925     Ni2941   1.899       .  S
O2925      C2931   1.262       .  A
O2926      C2931   1.288       .  A
C2927      C3819   1.481       .  S
O2928      C2930   1.266       .  A
O2929     Ni2940   1.898       .  S
C2930      O2936   1.267       .  A
C2930      C3805   1.521       .  S
C2931      C3962   1.528       .  S
H2932      O2933   0.965       .  S
O2933     Ni2941   1.907       .  S
O2933     Ni2935   1.909       .  S
O2933     Ni2940   1.909       .  S
O2934     Ni2935   1.941       .  S
Ni2935     O2939   1.956       .  S
Ni2935     O2937   2.020       .  S
O2936     Ni2941   1.922       .  S
C2938      O2939   1.291       .  A
C2938      C3777   1.496       .  S
O2943     Ni2949   1.938       .  S
O2943      C2964   1.285       .  A
O2944     Ni2967   1.821       .  S
O2944      C2953   1.248       .  A
O2945     Ni2949   1.905       .  S
O2945     Ni2967   1.854       .  S
O2945     Ni2961   1.938       .  S
O2945      H2968   0.966       .  S
C2946      O2963   1.282       .  A
C2946      O2955   1.254       .  A
C2946      C4242   1.531       .  S
O2947     Ni2966   1.878       .  S
O2947      C2953   1.261       .  A
O2948     Ni2966   1.892       .  S
O2948      C2950   1.277       .  A
Ni2949     O2952   2.002       .  S
Ni2949     O2954   1.920       .  S
C2950      O2960   1.319       .  A
C2950      C3836   1.518       .  S
O2951     Ni2967   1.911       .  S
O2951      C2957   1.268       .  A
O2952      C2957   1.287       .  A
C2953      C4617   1.414       .  S
O2954      C2956   1.268       .  A
O2955     Ni2966   1.887       .  S
C2956      O2962   1.276       .  A
C2956      C4253   1.492       .  S
C2957      C3850   1.530       .  S
H2958      O2959   0.964       .  S
O2959     Ni2967   1.928       .  S
O2959     Ni2961   1.856       .  S
O2959     Ni2966   1.901       .  S
O2960     Ni2961   2.047       .  S
Ni2961     O2965   1.918       .  S
Ni2961     O2963   1.996       .  S
O2962     Ni2967   1.950       .  S
C2964      O2965   1.290       .  A
C2964      C3780   1.511       .  S
O2969     Ni2975   1.960       .  S
O2969      C2990   1.294       .  A
O2970     Ni2993   1.859       .  S
O2970      C2979   1.234       .  A
O2971     Ni2975   1.883       .  S
O2971     Ni2993   1.848       .  S
O2971     Ni2987   1.931       .  S
O2971      H2994   0.966       .  S
C2972      O2989   1.316       .  A
C2972      O2981   1.269       .  A
O2973     Ni2992   1.857       .  S
O2973      C2979   1.250       .  A
O2974     Ni2992   1.893       .  S
O2974      C2976   1.253       .  A
Ni2975     O2978   2.038       .  S
Ni2975     O2980   1.961       .  S
C2976      O2986   1.274       .  A
C2976      C3861   1.531       .  S
O2977     Ni2993   1.843       .  S
O2977      C2983   1.252       .  A
O2978      C2983   1.302       .  A
C2979      C3735   1.421       .  S
O2980      C2982   1.271       .  A
O2981     Ni2992   1.867       .  S
C2982      O2988   1.260       .  A
C2982      C3766   1.530       .  S
C2983      C3875   1.528       .  S
H2984      O2985   0.957       .  S
O2985     Ni2993   1.925       .  S
O2985     Ni2987   1.861       .  S
O2985     Ni2992   1.878       .  S
O2986     Ni2987   1.991       .  S
Ni2987     O2991   1.902       .  S
Ni2987     O2989   2.045       .  S
O2988     Ni2993   1.922       .  S
C2990      O2991   1.289       .  A
C2990      C3721   1.480       .  S
O2995     Ni3001   1.952       .  S
O2995      C3016   1.287       .  A
O2996     Ni3019   1.872       .  S
O2996      C3005   1.259       .  A
O2997     Ni3001   1.897       .  S
O2997     Ni3019   1.864       .  S
O2997     Ni3013   1.915       .  S
O2997      H3020   0.966       .  S
C2998      O3015   1.276       .  A
C2998      O3007   1.253       .  A
C2998      C4592   1.534       .  S
O2999     Ni3018   1.869       .  S
O2999      C3005   1.257       .  A
O3000     Ni3018   1.876       .  S
O3000      C3002   1.271       .  A
Ni3001     O3004   1.992       .  S
Ni3001     O3006   1.936       .  S
C3002      O3012   1.308       .  A
C3002      C3707   1.491       .  S
O3003     Ni3019   1.892       .  S
O3003      C3009   1.268       .  A
O3004      C3009   1.290       .  A
C3005      C4365   1.429       .  S
O3006      C3008   1.272       .  A
O3007     Ni3018   1.878       .  S
C3008      O3014   1.274       .  A
C3008      C4606   1.519       .  S
C3009      C3693   1.535       .  S
H3010      O3011   0.965       .  S
O3011     Ni3019   1.923       .  S
O3011     Ni3013   1.877       .  S
O3011     Ni3018   1.895       .  S
O3012     Ni3013   2.021       .  S
Ni3013     O3017   1.900       .  S
Ni3013     O3015   1.997       .  S
O3014     Ni3019   1.930       .  S
C3016      O3017   1.282       .  A
C3016      C3724   1.478       .  S
O3021     Ni3027   1.842       .  S
O3021      C3042   1.251       .  A
O3022     Ni3045   1.900       .  S
O3022      C3031   1.283       .  A
O3023     Ni3027   1.920       .  S
O3023     Ni3045   1.857       .  S
O3023     Ni3039   1.936       .  S
O3023      H3046   0.956       .  S
C3024      O3041   1.264       .  A
C3024      O3033   1.291       .  A
C3024      C4102   1.533       .  S
O3025     Ni3044   1.946       .  S
O3025      C3031   1.285       .  A
O3026     Ni3044   1.914       .  S
O3026      C3028   1.267       .  A
Ni3027     O3030   1.849       .  S
Ni3027     O3032   1.889       .  S
C3028      O3038   1.267       .  A
C3028      C3654   1.507       .  S
O3029     Ni3045   2.044       .  S
O3029      C3035   1.313       .  A
O3030      C3035   1.259       .  A
C3031      C3679   1.486       .  S
O3032      C3034   1.258       .  A
O3033     Ni3044   1.999       .  S
C3034      O3040   1.271       .  A
C3034      C4113   1.489       .  S
C3035      C3665   1.509       .  S
H3036      O3037   0.965       .  S
O3037     Ni3045   1.951       .  S
O3037     Ni3039   1.879       .  S
O3037     Ni3044   1.896       .  S
O3038     Ni3039   1.925       .  S
Ni3039     O3043   1.882       .  S
Ni3039     O3041   1.890       .  S
O3040     Ni3045   1.955       .  S
C3042      O3043   1.251       .  A
C3042      C3637   1.452       .  S
O3047     Ni3053   1.896       .  S
O3047      C3068   1.259       .  A
O3048     Ni3071   1.900       .  S
O3048      C3057   1.280       .  A
O3049     Ni3053   1.861       .  S
O3049     Ni3071   1.856       .  S
O3049     Ni3065   1.923       .  S
O3049      H3072   0.961       .  S
C3050      O3067   1.253       .  A
C3050      O3059   1.291       .  A
C3050      C3710   1.527       .  S
O3051     Ni3070   1.940       .  S
O3051      C3057   1.284       .  A
O3052     Ni3070   1.921       .  S
O3052      C3054   1.267       .  A
Ni3053     O3056   1.900       .  S
Ni3053     O3058   1.881   1_556  S
C3054      O3064   1.281       .  A
C3054      C4337   1.510       .  S
O3055     Ni3071   2.019       .  S
O3055      C3061   1.309       .  A
O3056      C3061   1.281       .  A
C3057      C3682   1.476       .  S
O3058      C3060   1.248       .  A
O3059     Ni3070   2.008       .  S
C3060      O3066   1.275   1_554  A
H3062      O3063   0.965       .  S
O3063     Ni3071   1.952       .  S
O3063     Ni3065   1.882       .  S
O3063     Ni3070   1.901       .  S
O3064     Ni3065   1.962       .  S
Ni3065     O3069   1.886       .  S
Ni3065     O3067   1.867       .  S
O3066     Ni3071   1.978       .  S
C3068      O3069   1.250       .  A
C3068      C4578   1.444       .  S
O3073     Ni3079   1.959       .  S
O3073      C3094   1.290       .  A
O3074     Ni3097   1.859       .  S
O3074      C3083   1.261       .  A
O3075     Ni3079   1.893       .  S
O3075     Ni3097   1.871       .  S
O3075     Ni3091   1.928       .  S
O3075      H3098   0.966       .  S
C3076      O3093   1.311       .  A
C3076      O3085   1.273       .  A
C3076      C4298   1.495       .  S
O3077     Ni3096   1.907       .  S
O3077      C3083   1.260       .  A
O3078     Ni3096   1.896       .  S
O3078      C3080   1.258       .  A
Ni3079     O3082   1.995       .  S
Ni3079     O3084   1.923       .  S
C3080      O3090   1.280       .  A
C3080      C3595   1.519       .  S
O3081     Ni3097   1.872       .  S
O3081      C3087   1.255       .  A
O3082      C3087   1.287       .  A
C3083      C4424   1.441       .  S
O3084      C3086   1.274       .  A
O3085     Ni3096   1.872       .  S
C3086      O3092   1.277       .  A
C3086      C4312   1.506       .  S
C3087      C3609   1.488       .  S
H3088      O3089   0.963       .  S
O3089     Ni3097   1.870       .  S
O3089     Ni3091   1.868       .  S
O3089     Ni3096   1.881       .  S
O3090     Ni3091   1.994       .  S
Ni3091     O3095   1.936       .  S
Ni3091     O3093   2.016       .  S
O3092     Ni3097   1.956       .  S
C3094      O3095   1.293       .  A
C3094      C3623   1.517       .  S
O3099     Ni3105   1.957       .  S
O3099      C3120   1.290       .  A
O3100     Ni3123   1.858       .  S
O3100      C3109   1.239       .  A
O3101     Ni3105   1.904       .  S
O3101     Ni3123   1.856       .  S
O3101     Ni3117   1.927       .  S
O3101      H3124   0.966       .  S
C3102      O3119   1.295       .  A
C3102      O3111   1.256       .  A
C3102      C3794   1.504       .  S
O3103     Ni3122   1.861       .  S
O3103      C3109   1.250       .  A
O3104     Ni3122   1.886       .  S
O3104      C3106   1.271       .  A
Ni3105     O3108   2.013       .  S
Ni3105     O3110   1.932       .  S
C3106      O3116   1.290       .  A
C3106      C3567   1.491       .  S
O3107     Ni3123   1.874       .  S
O3107      C3113   1.254       .  A
O3108      C3113   1.292       .  A
C3109      C3976   1.444       .  S
O3110      C3112   1.272       .  A
O3111     Ni3122   1.862       .  S
C3112      O3118   1.270       .  A
C3112      C3808   1.518       .  S
C3113      C3581   1.528       .  S
H3114      O3115   0.963       .  S
O3115     Ni3123   1.953       .  S
O3115     Ni3117   1.908       .  S
O3115     Ni3122   1.922       .  S
O3116     Ni3117   1.970       .  S
Ni3117     O3121   1.941       .  S
Ni3117     O3119   2.004       .  S
O3118     Ni3123   1.942       .  S
C3120      O3121   1.294       .  A
C3120      C3626   1.515       .  S
O3125      C3146   1.259       .  A
O3126     Ni3149   1.910       .  S
O3126      C3135   1.284       .  A
O3127     Ni3149   1.881       .  S
O3127     Ni3143   1.916       .  S
O3127      H3150   0.961       .  S
C3128      O3145   1.265       .  A
C3128      O3137   1.286       .  A
C3128      C3528   1.502       .  S
O3129     Ni3148   1.948       .  S
O3129      C3135   1.285       .  A
O3130     Ni3148   1.913       .  S
O3130      C3132   1.270       .  A
Ni3131     O3134   1.871       .  S
Ni3131     O3136   1.901       .  S
C3132      O3142   1.278       .  A
C3132      C4169   1.503       .  S
O3133      C3139   1.303       .  A
O3134      C3139   1.260       .  A
C3135      C3553   1.483       .  S
O3136      C3138   1.262       .  A
O3137     Ni3148   1.991       .  S
C3138      O3144   1.276       .  A
C3138      C3542   1.498       .  S
C3139      C4158   1.501       .  S
H3140      O3141   0.965       .  S
O3141     Ni3149   1.934       .  S
O3141     Ni3143   1.866       .  S
O3141     Ni3148   1.896       .  S
O3142     Ni3143   1.957       .  S
Ni3143     O3147   1.866       .  S
Ni3143     O3145   1.885       .  S
C3146      O3147   1.256       .  A
C3146      C4522   1.451       .  S
O3151     Ni3157   1.869       .  S
O3151      C3172   1.253       .  A
O3152     Ni3175   1.918       .  S
O3152      C3161   1.282       .  A
O3153     Ni3157   1.919       .  S
O3153     Ni3175   1.897       .  S
O3153     Ni3169   1.948       .  S
O3153      H3176   0.966       .  S
C3154      O3171   1.251       .  A
C3154      O3163   1.287       .  A
O3155     Ni3174   1.933       .  S
O3155      C3161   1.280       .  A
O3156     Ni3174   1.908       .  S
O3156      C3158   1.264       .  A
Ni3157     O3160   1.891       .  S
Ni3157     O3162   1.882       .  S
C3158      O3168   1.275       .  A
O3159     Ni3175   1.990       .  S
O3159      C3165   1.291       .  A
O3160      C3165   1.264       .  A
C3161      C3556   1.489       .  S
O3162      C3164   1.264       .  A
O3163     Ni3174   1.999       .  S
C3164      O3170   1.285       .  A
C3164      C3584   1.498       .  S
C3165      C4004   1.508       .  S
H3166      O3167   0.963       .  S
O3167     Ni3175   1.938       .  S
O3167     Ni3169   1.884       .  S
O3167     Ni3174   1.912       .  S
O3168     Ni3169   1.943       .  S
Ni3169     O3173   1.900       .  S
Ni3169     O3171   1.859       .  S
O3170     Ni3175   1.973       .  S
C3172      O3173   1.242       .  A
C3172      C3822   1.486       .  S
O3177     Ni3183   1.941       .  S
O3177      C3198   1.281       .  A
O3178     Ni3201   1.881       .  S
O3178      C3187   1.265       .  A
O3179     Ni3183   1.880       .  S
O3179     Ni3201   1.878       .  S
O3179     Ni3195   1.930       .  S
O3179      H3202   0.965       .  S
C3180      O3197   1.306       .  A
C3180      O3189   1.275       .  A
C3180      C4494   1.503       .  S
O3181     Ni3200   1.911       .  S
O3181      C3187   1.261       .  A
O3182     Ni3200   1.888       .  S
O3182      C3184   1.256       .  A
Ni3183     O3186   1.990       .  S
Ni3183     O3188   1.905       .  S
C3184      O3194   1.269       .  A
C3184      C3525   1.507       .  S
O3185     Ni3201   1.879       .  S
O3185      C3191   1.265       .  A
O3186      C3191   1.291       .  A
C3187      C4144   1.474       .  S
O3188      C3190   1.265       .  A
O3189     Ni3200   1.891       .  S
C3190      O3196   1.274       .  A
C3190      C4505   1.504       .  S
C3191      C3539   1.522       .  S
H3192      O3193   0.962       .  S
O3193     Ni3201   1.911       .  S
O3193     Ni3195   1.881       .  S
O3193     Ni3200   1.883       .  S
O3194     Ni3195   1.971       .  S
Ni3195     O3199   1.915       .  S
Ni3195     O3197   2.013       .  S
O3196     Ni3201   1.949       .  S
C3198      O3199   1.283       .  A
C3198      C3511   1.478       .  S
O3203     Ni3209   1.900       .  S
O3203      C3224   1.275       .  A
O3204     Ni3227   1.855       .  S
O3204      C3213   1.224       .  A
O3205     Ni3209   1.937       .  S
O3205     Ni3227   1.858       .  S
O3205     Ni3221   1.985       .  S
O3205      H3228   0.967       .  S
C3206      O3223   1.308       .  A
C3206      O3215   1.266       .  A
C3206      C3752   1.527       .  S
O3207     Ni3226   1.844       .  S
O3207      C3213   1.233       .  A
O3208     Ni3226   1.912       .  S
O3208      C3210   1.260       .  A
Ni3209     O3212   2.025       .  S
Ni3209     O3214   1.964       .  S
C3210      O3220   1.277       .  A
C3210      C3483   1.533       .  S
O3211     Ni3227   1.866       .  S
O3211      C3217   1.255       .  A
O3212      C3217   1.295       .  A
C3213      C3934   1.405       .  S
O3214      C3216   1.264       .  A
O3215     Ni3226   1.878       .  S
C3216      O3222   1.254       .  A
C3216      C3763   1.536       .  S
C3217      C3497   1.531       .  S
H3218      O3219   0.961       .  S
O3219     Ni3227   1.960       .  S
O3219     Ni3221   1.893       .  S
O3219     Ni3226   1.909       .  S
O3220     Ni3221   1.982       .  S
Ni3221     O3225   1.947       .  S
Ni3221     O3223   2.036       .  S
O3222     Ni3227   1.929       .  S
C3224      O3225   1.283       .  A
C3224      C3514   1.485       .  S
O3229     Ni3235   1.899       .  S
O3229      C3250   1.264       .  A
O3230     Ni3253   1.927       .  S
O3230      C3239   1.288       .  A
O3231     Ni3235   1.881       .  S
O3231     Ni3253   1.862       .  S
O3231     Ni3247   1.934       .  S
O3231      H3254   0.953       .  S
C3232      O3249   1.252       .  A
C3232      O3241   1.293       .  A
O3233     Ni3252   1.928       .  S
O3233      C3239   1.277       .  A
O3234     Ni3252   1.906       .  S
O3234      C3236   1.259       .  A
Ni3235     O3238   1.908       .  S
Ni3235     O3240   1.895       .  S
C3236      O3246   1.278       .  A
O3237     Ni3253   2.015       .  S
O3237      C3243   1.308       .  A
O3238      C3243   1.276       .  A
C3239      C3469   1.480       .  S
O3240      C3242   1.261       .  A
O3241     Ni3252   2.019       .  S
C3242      O3248   1.285       .  A
C3242      C3500   1.506       .  S
C3243      C3920   1.521       .  S
H3244      O3245   0.967       .  S
O3245     Ni3253   1.933       .  S
O3245     Ni3247   1.839       .  S
O3245     Ni3252   1.901       .  S
O3246     Ni3247   1.973       .  S
Ni3247     O3251   1.842       .  S
Ni3247     O3249   1.878       .  S
O3248     Ni3253   1.987       .  S
C3250      O3251   1.240       .  A
C3250      C3738   1.427       .  S
O3255      C3276   1.242       .  A
O3256     Ni3279   1.935       .  S
O3256      C3265   1.289       .  A
O3257     Ni3279   1.908       .  S
O3257     Ni3273   1.916       .  S
O3257      H3280   0.964       .  S
C3258      O3275   1.276       .  A
C3258      O3267   1.298       .  A
C3258      C3455   1.537       .  S
O3259     Ni3278   1.912       .  S
O3259      C3265   1.280       .  A
O3260     Ni3278   1.955       .  S
O3260      C3262   1.265       .  A
Ni3261     O3264   1.849       .  S
Ni3261     O3266   2.011       .  S
C3262      O3272   1.248       .  A
C3262      C4718   1.498       .  S
O3263      C3269   1.280       .  A
O3264      C3269   1.219       .  A
C3265      C3472   1.475       .  S
O3266      C3268   1.304       .  A
O3267     Ni3278   2.001       .  S
C3268      O3274   1.266       .  A
C3268      C3444   1.519       .  S
C3269      C4704   1.543       .  S
H3270      O3271   0.967       .  S
O3271     Ni3279   1.968       .  S
O3271     Ni3273   1.863       .  S
O3271     Ni3278   1.893       .  S
O3272     Ni3273   1.906       .  S
Ni3273     O3277   1.876       .  S
Ni3273     O3275   1.896       .  S
C3276      O3277   1.262       .  A
C3276      C4858   1.426   1_655  S
O3281     Ni3287   1.966       .  S
O3281      C3302   1.297       .  A
O3282     Ni3305   1.875       .  S
O3282      C3291   1.247       .  A
O3283     Ni3287   1.887       .  S
O3283     Ni3305   1.860       .  S
O3283     Ni3299   1.951       .  S
O3283      H3306   0.967       .  S
C3284      O3301   1.300       .  A
C3284      O3293   1.234       .  A
C3284      C4060   1.544       .  S
O3285     Ni3304   1.844       .  S
O3285      C3291   1.255       .  A
O3286     Ni3304   1.933       .  S
O3286      C3288   1.277       .  A
Ni3287     O3290   2.023       .  S
Ni3287     O3292   1.942       .  S
C3288      O3298   1.287       .  A
C3288      C3399   1.510       .  S
O3289     Ni3305   1.867       .  S
O3289      C3295   1.254       .  A
O3290      C3295   1.296       .  A
C3291      C3640   1.445       .  S
O3292      C3294   1.274       .  A
O3293     Ni3304   1.859       .  S
C3294      O3300   1.269       .  A
C3294      C4071   1.527       .  S
C3295      C3416   1.524       .  S
H3296      O3297   0.954       .  S
O3297     Ni3305   1.904       .  S
O3297     Ni3299   1.865       .  S
O3297     Ni3304   1.841       .  S
O3298     Ni3299   1.962       .  S
Ni3299     O3303   1.909       .  S
Ni3299     O3301   2.067       .  S
O3300     Ni3305   1.950       .  S
C3302      O3303   1.296       .  A
C3302      C3430   1.499       .  S
O3307     Ni3313   1.906       .  S
O3307      C3328   1.272       .  A
O3308     Ni3331   1.862       .  S
O3308      C3317   1.236       .  A
O3309     Ni3313   1.920       .  S
O3309     Ni3331   1.859       .  S
O3309     Ni3325   1.989       .  S
O3309      H3332   0.966       .  S
C3310      O3327   1.317       .  A
C3310      O3319   1.276       .  A
C3310      C4872   1.522       .  S
O3311     Ni3330   1.886       .  S
O3311      C3317   1.251       .  A
O3312     Ni3330   1.897       .  S
O3312      C3314   1.253       .  A
Ni3313     O3316   2.010       .  S
Ni3313     O3318   1.926       .  S
C3314      O3324   1.273       .  A
C3314      C3458   1.509       .  S
O3315     Ni3331   1.860       .  S
O3315      C3321   1.248       .  A
O3316      C3321   1.287       .  A
C3317      C4732   1.422       .  S
O3318      C3320   1.255       .  A
O3319     Ni3330   1.871       .  S
C3320      O3326   1.265       .  A
C3320      C4886   1.486       .  S
C3321      C3441   1.498       .  S
H3322      O3323   0.965       .  S
O3323     Ni3331   1.917       .  S
O3323     Ni3325   1.886       .  S
O3323     Ni3330   1.889       .  S
O3324     Ni3325   1.976       .  S
Ni3325     O3329   1.959       .  S
Ni3325     O3327   2.038       .  S
O3326     Ni3331   1.934       .  S
C3328      O3329   1.294       .  A
C3328      C3427   1.494       .  S
O3333      C3354   1.245       .  A
O3334     Ni3357   1.968       .  S
O3334      C3343   1.294       .  A
O3335     Ni3357   1.896       .  S
O3335     Ni3351   1.902       .  S
O3335      H3358   0.958       .  S
C3336      O3353   1.254       .  A
C3336      O3345   1.292       .  A
C3336      C3598   1.528       .  S
O3337     Ni3356   1.907       .  S
O3337      C3343   1.276       .  A
O3338     Ni3356   1.931       .  S
O3338      C3340   1.259       .  A
Ni3339     O3342   1.853       .  S
Ni3339     O3344   1.882       .  S
C3340      O3350   1.271       .  A
C3340      C4452   1.506       .  S
O3341      C3347   1.327       .  A
O3342      C3347   1.268       .  A
C3343      C3385   1.495       .  S
O3344      C3346   1.236       .  A
O3345     Ni3356   2.020       .  S
C3346      O3352   1.265       .  A
C3346      C3612   1.518       .  S
C3347      C4438   1.548       .  S
H3348      O3349   0.966       .  S
O3349     Ni3357   1.999       .  S
O3349     Ni3351   1.886       .  S
O3349     Ni3356   1.924       .  S
O3350     Ni3351   1.948       .  S
Ni3351     O3355   1.887       .  S
Ni3351     O3353   1.865       .  S
C3354      O3355   1.247       .  A
C3354      C4323   1.435       .  S
O3359     Ni3365   1.909       .  S
O3359      C3380   1.266       .  A
O3360     Ni3383   1.939       .  S
O3360      C3369   1.290       .  A
O3361     Ni3365   1.901       .  S
O3361     Ni3383   1.876       .  S
O3361     Ni3377   1.947       .  S
O3361      H3384   0.963       .  S
C3362      O3379   1.271       .  A
C3362      O3371   1.291       .  A
O3363     Ni3382   1.934       .  S
O3363      C3369   1.279       .  A
O3364     Ni3382   1.906       .  S
O3364      C3366   1.263       .  A
Ni3365     O3368   1.907       .  S
Ni3365     O3370   1.909       .  S
C3366      O3376   1.265       .  A
C3366      C3651   1.474       .  S
O3367     Ni3383   2.001       .  S
O3367      C3373   1.286       .  A
O3368      C3373   1.263       .  A
C3369      C3388   1.499       .  S
O3370      C3372   1.283       .  A
O3371     Ni3382   1.989       .  S
C3372      O3378   1.304       .  A
C3372      C3413   1.497       .  S
C3373      C3668   1.533       .  S
H3374      O3375   0.965       .  S
O3375     Ni3383   1.932       .  S
O3375     Ni3377   1.869       .  S
O3375     Ni3382   1.890       .  S
O3376     Ni3377   1.915       .  S
Ni3377     O3381   1.874       .  S
Ni3377     O3379   1.900       .  S
O3378     Ni3383   1.998       .  S
C3380      O3381   1.254       .  A
C3380      C4088   1.467       .  S
C3385      C3386   1.414       .  A
C3385      C3390   1.419       .  A
C3386      C3387   1.409       .  A
C3386      C3391   1.454       .  S
C3387      C3388   1.418       .  A
C3387      C3394   1.454       .  S
C3388      C3389   1.413       .  A
C3389      C3390   1.423       .  A
C3389      C3392   1.450       .  S
C3390      C3393   1.446       .  S
C3391      N3398   1.157       .  T
C3392      N3397   1.157       .  T
C3393      N3395   1.156       .  T
C3394      N3396   1.157       .  T
C3399      C3400   1.414       .  A
C3399      C3404   1.407   1_556  A
C3400      C3401   1.427       .  A
C3400      C3405   1.444       .  S
C3401      C3402   1.423   1_556  A
C3401      C3408   1.449       .  S
C3403      C3406   1.451       .  S
C3404      C3407   1.451       .  S
C3405      N3412   1.156       .  T
C3406      N3411   1.157       .  T
C3408      N3410   1.158       .  T
C3413      C3414   1.402       .  A
C3413      C3418   1.414       .  A
C3414      C3415   1.414       .  A
C3414      C3419   1.451       .  S
C3415      C3416   1.436       .  A
C3415      C3422   1.451       .  S
C3416      C3417   1.415       .  A
C3417      C3418   1.423       .  A
C3417      C3420   1.448       .  S
C3418      C3421   1.443       .  S
C3419      N3426   1.156       .  T
C3420      N3425   1.157       .  T
C3421      N3423   1.156       .  T
C3422      N3424   1.157       .  T
C3427      C3428   1.406       .  A
C3427      C3432   1.424       .  A
C3428      C3429   1.414       .  A
C3428      C3433   1.451       .  S
C3429      C3430   1.423       .  A
C3429      C3436   1.445       .  S
C3430      C3431   1.410       .  A
C3431      C3432   1.411       .  A
C3431      C3434   1.452       .  S
C3432      C3435   1.453       .  S
C3433      N3440   1.158       .  T
C3434      N3439   1.157       .  T
C3435      N3437   1.158       .  T
C3436      N3438   1.155       .  T
C3441      C3442   1.406       .  A
C3441      C3446   1.420       .  A
C3442      C3443   1.421       .  A
C3442      C3447   1.451       .  S
C3443      C3444   1.436       .  A
C3443      C3450   1.452       .  S
C3444      C3445   1.410       .  A
C3445      C3446   1.416       .  A
C3445      C3448   1.452       .  S
C3446      C3449   1.439       .  S
C3447      N3454   1.157       .  T
C3448      N3453   1.157       .  T
C3449      N3451   1.153       .  T
C3450      N3452   1.158       .  T
C3455      C3456   1.426       .  A
C3455      C3460   1.435       .  A
C3456      C3457   1.425       .  A
C3456      C3461   1.450       .  S
C3457      C3458   1.415       .  A
C3457      C3464   1.449       .  S
C3458      C3459   1.410       .  A
C3459      C3460   1.421       .  A
C3459      C3462   1.453       .  S
C3460      C3463   1.452       .  S
C3461      N3468   1.158       .  T
C3462      N3467   1.157       .  T
C3463      N3465   1.158       .  T
C3464      N3466   1.157       .  T
C3469      C3470   1.419       .  A
C3469      C3474   1.409       .  A
C3470      C3471   1.403       .  A
C3470      C3475   1.454       .  S
C3471      C3472   1.408       .  A
C3472      C3473   1.417       .  A
C3473      C3474   1.413       .  A
C3473      C3476   1.451       .  S
C3474      C3477   1.450       .  S
C3476      N3481   1.157       .  T
C3477      N3479   1.157       .  T
C3478      N3480   1.157       .  T
C3483      C3484   1.429       .  A
C3483      C3488   1.421       .  A
C3484      C3485   1.414       .  A
C3484      C3489   1.452       .  S
C3485      C3486   1.401       .  A
C3485      C3492   1.445       .  S
C3486      C3487   1.422       .  A
C3487      C3488   1.432       .  A
C3487      C3490   1.448       .  S
C3488      C3491   1.448       .  S
C3489      N3496   1.158       .  T
C3490      N3495   1.157       .  T
C3491      N3493   1.157       .  T
C3492      N3494   1.156       .  T
C3497      C3498   1.417       .  A
C3497      C3502   1.435       .  A
C3498      C3499   1.427       .  A
C3498      C3503   1.448       .  S
C3499      C3500   1.418       .  A
C3499      C3506   1.444       .  S
C3500      C3501   1.406       .  A
C3501      C3502   1.418       .  A
C3501      C3504   1.450       .  S
C3502      C3505   1.453       .  S
C3503      N3510   1.157       .  T
C3504      N3509   1.157       .  T
C3505      N3507   1.158       .  T
C3506      N3508   1.156       .  T
C3511      C3512   1.413       .  A
C3511      C3516   1.409       .  A
C3512      C3513   1.419       .  A
C3512      C3517   1.449       .  S
C3513      C3514   1.413       .  A
C3513      C3520   1.448       .  S
C3514      C3515   1.415       .  A
C3515      C3516   1.403       .  A
C3515      C3518   1.454       .  S
C3516      C3519   1.454       .  S
C3517      N3524   1.157       .  T
C3518      N3523   1.157       .  T
C3519      N3521   1.157       .  T
C3520      N3522   1.158       .  T
C3525      C3526   1.426       .  A
C3525      C3530   1.409       .  A
C3526      C3527   1.433       .  A
C3526      C3531   1.446       .  S
C3527      C3528   1.414       .  A
C3527      C3534   1.446       .  S
C3528      C3529   1.408       .  A
C3529      C3530   1.395       .  A
C3529      C3532   1.443       .  S
C3530      C3533   1.452       .  S
C3531      N3538   1.157       .  T
C3532      N3537   1.155       .  T
C3533      N3535   1.157       .  T
C3534      N3536   1.157       .  T
C3539      C3540   1.420       .  A
C3539      C3544   1.430       .  A
C3540      C3541   1.422       .  A
C3540      C3545   1.449       .  S
C3541      C3542   1.412       .  A
C3541      C3548   1.444       .  S
C3542      C3543   1.404       .  A
C3543      C3544   1.414       .  A
C3543      C3546   1.450       .  S
C3544      C3547   1.451       .  S
C3545      N3552   1.157       .  T
C3546      N3551   1.157       .  T
C3547      N3549   1.157       .  T
C3548      N3550   1.156   1_556  T
C3553      C3554   1.410       .  A
C3553      C3558   1.412       .  A
C3554      C3555   1.410       .  A
C3554      C3559   1.452       .  S
C3555      C3556   1.417       .  A
C3555      C3562   1.452       .  S
C3556      C3557   1.415       .  A
C3557      C3558   1.414       .  A
C3557      C3560   1.450       .  S
C3558      C3561   1.451       .  S
C3559      N3566   1.157       .  T
C3560      N3565   1.157       .  T
C3561      N3563   1.157       .  T
C3562      N3564   1.157       .  T
C3567      C3568   1.414       .  A
C3567      C3572   1.401   1_556  A
C3568      C3569   1.424       .  A
C3568      C3573   1.445       .  S
C3569      C3570   1.417   1_556  A
C3569      C3576   1.448       .  S
C3570      C3571   1.438       .  A
C3571      C3572   1.413       .  A
C3572      C3575   1.450       .  S
C3573      N3580   1.157       .  T
C3574      N3579   1.157       .  T
C3575      N3577   1.156       .  T
C3576      N3578   1.157       .  T
C3581      C3582   1.436       .  A
C3581      C3586   1.414       .  A
C3582      C3583   1.417       .  A
C3582      C3587   1.449       .  S
C3583      C3584   1.402       .  A
C3583      C3590   1.451       .  S
C3584      C3585   1.417       .  A
C3585      C3586   1.424       .  A
C3585      C3588   1.444       .  S
C3586      C3589   1.449       .  S
C3587      N3594   1.157       .  T
C3588      N3593   1.157       .  T
C3589      N3591   1.157       .  T
C3590      N3592   1.157       .  T
C3595      C3596   1.408       .  A
C3595      C3600   1.421       .  A
C3596      C3597   1.419       .  A
C3596      C3601   1.449       .  S
C3597      C3598   1.428       .  A
C3597      C3604   1.452       .  S
C3598      C3599   1.415       .  A
C3599      C3600   1.432       .  A
C3599      C3602   1.446       .  S
C3600      C3603   1.443       .  S
C3601      N3608   1.157       .  T
C3602      N3607   1.157       .  T
C3603      N3605   1.156       .  T
C3604      N3606   1.157       .  T
C3609      C3610   1.411       .  A
C3609      C3614   1.411       .  A
C3610      C3611   1.405       .  A
C3610      C3615   1.453       .  S
C3611      C3612   1.432       .  A
C3611      C3618   1.459       .  S
C3612      C3613   1.423       .  A
C3613      C3614   1.424       .  A
C3613      C3616   1.448       .  S
C3614      C3617   1.449       .  S
C3615      N3622   1.157       .  T
C3617      N3619   1.157       .  T
C3618      N3620   1.158       .  T
C3623      C3624   1.416       .  A
C3623      C3628   1.424       .  A
C3624      C3625   1.420       .  A
C3624      C3629   1.452       .  S
C3625      C3626   1.422       .  A
C3625      C3632   1.452       .  S
C3626      C3627   1.414       .  A
C3627      C3628   1.424       .  A
C3627      C3630   1.450       .  S
C3628      C3631   1.450       .  S
C3629      N3636   1.158       .  T
C3630      N3635   1.157       .  T
C3631      N3633   1.157       .  T
C3632      N3634   1.157       .  T
C3637      C3638   1.428       .  A
C3637      C3642   1.393       .  A
C3638      C3639   1.393       .  A
C3638      C3643   1.438       .  S
C3639      C3640   1.388       .  A
C3639      C3646   1.463       .  S
C3640      C3641   1.423       .  A
C3641      C3642   1.396       .  A
C3641      C3644   1.441       .  S
C3642      C3645   1.460       .  S
C3643      N3650   1.158       .  T
C3644      N3649   1.158       .  T
C3645      N3647   1.157       .  T
C3646      N3648   1.157       .  T
C3651      C3656   1.405       .  A
C3652      C3653   1.405       .  A
C3652      C3657   1.454       .  S
C3653      C3654   1.428       .  A
C3653      C3660   1.449       .  S
C3654      C3655   1.426       .  A
C3656      C3659   1.451       .  S
C3657      N3664   1.157       .  T
C3658      N3663   1.158       .  T
C3659      N3661   1.157       .  T
C3660      N3662   1.156       .  T
C3665      C3666   1.420       .  A
C3665      C3670   1.416       .  A
C3666      C3667   1.430       .  A
C3666      C3671   1.448       .  S
C3667      C3668   1.416       .  A
C3667      C3674   1.447       .  S
C3668      C3669   1.421       .  A
C3669      C3670   1.433       .  A
C3669      C3672   1.443       .  S
C3670      C3673   1.448       .  S
C3671      N3678   1.157       .  T
C3672      N3677   1.156       .  T
C3673      N3675   1.157       .  T
C3674      N3676   1.157       .  T
C3679      C3680   1.421       .  A
C3679      C3684   1.413       .  A
C3680      C3681   1.409   1_545  A
C3680      C3685   1.452       .  S
C3681      C3682   1.407       .  A
C3681      C3688   1.452       .  S
C3682      C3683   1.413       .  A
C3683      C3684   1.408   1_565  A
C3683      C3686   1.453       .  S
C3684      C3687   1.452       .  S
C3685      N3692   1.158       .  T
C3686      N3691   1.157       .  T
C3687      N3689   1.157       .  T
C3688      N3690   1.157       .  T
C3693      C3694   1.431       .  A
C3693      C3698   1.424       .  A
C3694      C3695   1.413       .  A
C3694      C3699   1.443       .  S
C3695      C3696   1.404       .  A
C3695      C3702   1.452       .  S
C3696      C3697   1.409       .  A
C3697      C3698   1.427       .  A
C3698      C3701   1.447       .  S
C3699      N3706   1.154       .  T
C3700      N3705   1.156       .  T
C3701      N3703   1.157       .  T
C3702      N3704   1.157       .  T
C3707      C3708   1.416       .  A
C3707      C3712   1.397       .  A
C3708      C3709   1.428       .  A
C3708      C3713   1.444       .  S
C3709      C3710   1.414       .  A
C3709      C3716   1.446       .  S
C3710      C3711   1.436       .  A
C3711      C3712   1.416       .  A
C3711      C3714   1.447       .  S
C3712      C3715   1.452       .  S
C3713      N3720   1.157       .  T
C3714      N3719   1.156       .  T
C3715      N3717   1.157       .  T
C3716      N3718   1.158       .  T
C3721      C3722   1.413       .  A
C3721      C3726   1.412       .  A
C3722      C3723   1.411       .  A
C3722      C3727   1.452       .  S
C3723      C3724   1.412       .  A
C3723      C3730   1.451       .  S
C3724      C3725   1.410       .  A
C3725      C3726   1.411       .  A
C3725      C3728   1.451       .  S
C3726      C3729   1.450       .  S
C3727      N3734   1.157       .  T
C3728      N3733   1.157       .  T
C3729      N3731   1.157       .  T
C3730      N3732   1.157       .  T
C3735      C3736   1.420       .  A
C3735      C3740   1.384       .  A
C3736      C3737   1.388       .  A
C3736      C3741   1.438       .  S
C3737      C3738   1.389       .  A
C3737      C3744   1.455       .  S
C3738      C3739   1.413       .  A
C3739      C3740   1.375       .  A
C3739      C3742   1.438       .  S
C3740      C3743   1.452       .  S
C3741      N3748   1.156       .  T
C3742      N3747   1.154       .  T
C3743      N3745   1.154       .  T
C3744      N3746   1.157       .  T
C3749      C3754   1.411   1_554  A
C3750      C3755   1.451       .  S
C3751      C3752   1.413       .  A
C3752      C3753   1.429       .  A
C3753      C3754   1.426       .  A
C3753      C3756   1.451       .  S
C3754      C3757   1.449       .  S
C3755      N3762   1.157       .  T
C3756      N3761   1.157       .  T
C3757      N3759   1.157       .  T
C3758      N3760   1.157       .  T
C3763      C3764   1.426       .  A
C3763      C3768   1.423       .  A
C3764      C3765   1.418       .  A
C3764      C3769   1.454       .  S
C3765      C3766   1.424       .  A
C3765      C3772   1.456       .  S
C3766      C3767   1.423       .  A
C3767      C3768   1.435       .  A
C3767      C3770   1.448       .  S
C3768      C3771   1.447       .  S
C3769      N3776   1.158       .  T
C3770      N3775   1.157       .  T
C3771      N3773   1.157       .  T
C3772      N3774   1.158       .  T
C3777      C3778   1.421       .  A
C3777      C3782   1.406       .  A
C3778      C3779   1.415       .  A
C3778      C3783   1.453       .  S
C3779      C3780   1.414   1_545  A
C3779      C3786   1.450   1_545  S
C3780      C3781   1.430       .  A
C3781      C3782   1.414   1_565  A
C3781      C3784   1.453       .  S
C3782      C3785   1.449       .  S
C3783      N3790   1.157       .  T
C3784      N3789   1.158       .  T
C3785      N3787   1.157       .  T
C3786      N3788   1.157       .  T
C3791      C3796   1.414   1_554  A
C3792      C3797   1.449       .  S
C3793      C3794   1.409       .  A
C3793      C3800   1.447       .  S
C3794      C3795   1.421       .  A
C3795      C3796   1.428       .  A
C3795      C3798   1.448       .  S
C3796      C3799   1.447       .  S
C3797      N3804   1.157       .  T
C3798      N3803   1.157       .  T
C3799      N3801   1.157       .  T
C3805      C3806   1.420       .  A
C3805      C3810   1.418       .  A
C3806      C3807   1.424       .  A
C3806      C3811   1.446       .  S
C3807      C3808   1.419       .  A
C3807      C3814   1.451       .  S
C3808      C3809   1.422       .  A
C3809      C3810   1.416       .  A
C3809      C3812   1.453       .  S
C3810      C3813   1.449       .  S
C3811      N3818   1.156       .  T
C3812      N3817   1.158       .  T
C3813      N3815   1.156       .  T
C3814      N3816   1.158       .  T
C3819      C3820   1.390       .  A
C3819      C3824   1.385       .  A
C3820      C3821   1.401       .  A
C3820      C3825   1.438       .  S
C3821      C3822   1.429       .  A
C3821      C3828   1.443       .  S
C3822      C3823   1.438       .  A
C3823      C3824   1.410       .  A
C3823      C3826   1.449       .  S
C3824      C3827   1.440       .  S
C3825      N3832   1.154       .  T
C3826      N3831   1.157       .  T
C3827      N3829   1.154       .  T
C3828      N3830   1.156       .  T
C3833      C3834   1.417       .  A
C3833      C3838   1.427       .  A
C3834      C3835   1.426       .  A
C3834      C3839   1.453       .  S
C3835      C3836   1.422       .  A
C3835      C3842   1.443       .  S
C3836      C3837   1.412       .  A
C3837      C3838   1.429       .  A
C3837      C3840   1.448       .  S
C3838      C3841   1.449       .  S
C3839      N3846   1.158       .  T
C3840      N3845   1.157       .  T
C3841      N3843   1.157       .  T
C3842      N3844   1.155       .  T
C3847      C3848   1.423       .  A
C3847      C3852   1.424       .  A
C3848      C3849   1.445       .  A
C3849      C3850   1.424       .  A
C3849      C3856   1.446       .  S
C3850      C3851   1.412       .  A
C3851      C3852   1.412       .  A
C3851      C3854   1.446       .  S
C3852      C3855   1.455       .  S
C3853      N3860   1.157   1_554  T
C3854      N3859   1.156       .  T
C3855      N3857   1.157       .  T
C3856      N3858   1.157       .  T
C3861      C3862   1.429       .  A
C3862      C3863   1.439       .  A
C3862      C3867   1.446       .  S
C3863      C3870   1.446       .  S
C3864      C3865   1.414       .  A
C3865      C3866   1.403       .  A
C3865      C3868   1.449       .  S
C3866      C3869   1.456       .  S
C3867      N3874   1.157       .  T
C3868      N3873   1.158       .  T
C3869      N3871   1.158       .  T
C3870      N3872   1.157       .  T
C3875      C3876   1.413       .  A
C3875      C3880   1.439       .  A
C3876      C3877   1.426       .  A
C3876      C3881   1.447       .  S
C3877      C3878   1.420       .  A
C3877      C3884   1.443       .  S
C3878      C3879   1.402       .  A
C3879      C3880   1.413       .  A
C3879      C3882   1.452       .  S
C3880      C3883   1.454       .  S
C3881      N3888   1.157       .  T
C3882      N3887   1.157       .  T
C3883      N3885   1.158       .  T
C3884      N3886   1.155       .  T
C3889      C3890   1.406   1_655  A
C3889      C3894   1.415       .  A
C3890      C3891   1.402       .  A
C3890      C3895   1.454   1_455  S
C3891      C3892   1.418       .  A
C3891      C3898   1.454       .  S
C3892      C3893   1.409       .  A
C3893      C3894   1.414   1_455  A
C3893      C3896   1.450       .  S
C3894      C3897   1.448       .  S
C3895      N3902   1.157       .  T
C3896      N3901   1.157   1_556  T
C3897      N3899   1.157       .  T
C3898      N3900   1.157       .  T
C3903      C3904   1.393   1_556  A
C3903      C3908   1.403       .  A
C3905      C3912   1.440       .  S
C3906      C3907   1.421       .  A
C3907      C3908   1.417       .  A
C3907      C3910   1.449       .  S
C3908      C3911   1.444       .  S
C3909      N3916   1.158       .  T
C3910      N3915   1.157       .  T
C3911      N3913   1.156       .  T
C3912      N3914   1.157       .  T
C3917      C3918   1.435       .  A
C3917      C3922   1.413       .  A
C3918      C3919   1.426       .  A
C3918      C3923   1.443       .  S
C3919      C3920   1.403       .  A
C3919      C3926   1.451       .  S
C3920      C3921   1.423       .  A
C3921      C3922   1.433       .  A
C3921      C3924   1.446       .  S
C3922      C3925   1.446       .  S
C3923      N3930   1.155       .  T
C3924      N3929   1.157       .  T
C3925      N3927   1.157       .  T
C3926      N3928   1.157       .  T
C3931      C3932   1.414       .  A
C3931      C3936   1.392       .  A
C3932      C3933   1.376       .  A
C3932      C3937   1.443       .  S
C3933      C3934   1.387       .  A
C3933      C3940   1.460       .  S
C3934      C3935   1.413       .  A
C3935      C3936   1.385       .  A
C3935      C3938   1.447       .  S
C3936      C3939   1.455       .  S
C3937      N3944   1.155       .  T
C3938      N3943   1.157       .  T
C3939      N3941   1.157       .  T
C3940      N3942   1.157       .  T
C3945      C3950   1.414       .  A
C3946      C3947   1.404       .  A
C3946      C3951   1.448       .  S
C3947      C3948   1.418       .  A
C3947      C3954   1.436       .  S
C3949      C3950   1.420       .  A
C3949      C3952   1.445       .  S
C3950      C3953   1.439       .  S
C3951      N3958   1.157       .  T
C3952      N3957   1.157       .  T
C3953      N3955   1.155       .  T
C3954      N3956   1.153       .  T
C3959      C3960   1.409       .  A
C3959      C3964   1.400       .  A
C3960      C3961   1.425       .  A
C3960      C3965   1.440       .  S
C3961      C3962   1.416       .  A
C3961      C3968   1.443       .  S
C3962      C3963   1.427       .  A
C3963      C3964   1.417       .  A
C3963      C3966   1.441       .  S
C3964      C3967   1.451       .  S
C3965      N3972   1.156       .  T
C3966      N3971   1.155       .  T
C3967      N3969   1.157       .  T
C3968      N3970   1.157       .  T
C3973      C3974   1.414       .  A
C3973      C3978   1.401       .  A
C3974      C3975   1.393       .  A
C3974      C3979   1.442       .  S
C3975      C3976   1.400       .  A
C3975      C3982   1.457       .  S
C3976      C3977   1.415       .  A
C3977      C3978   1.399       .  A
C3977      C3980   1.444       .  S
C3978      C3981   1.454       .  S
C3979      N3986   1.155       .  T
C3980      N3985   1.156       .  T
C3981      N3983   1.157       .  T
C3982      N3984   1.157       .  T
C3987      C3988   1.429       .  A
C3987      C3992   1.432       .  A
C3988      C3989   1.422       .  A
C3988      C3993   1.450       .  S
C3989      C3990   1.409       .  A
C3990      C3991   1.398       .  A
C3991      C3992   1.408       .  A
C3991      C3994   1.452       .  S
C3992      C3995   1.442       .  S
C3993      N4000   1.158       .  T
C3994      N3999   1.157       .  T
C3995      N3997   1.155       .  T
C3996      N3998   1.157       .  T
C4001      C4002   1.418       .  A
C4001      C4006   1.413       .  A
C4002      C4003   1.426       .  A
C4002      C4007   1.448       .  S
C4003      C4004   1.413       .  A
C4003      C4010   1.447       .  S
C4004      C4005   1.420       .  A
C4005      C4006   1.424       .  A
C4005      C4008   1.449       .  S
C4006      C4009   1.450       .  S
C4007      N4014   1.157       .  T
C4008      N4013   1.157       .  T
C4009      N4011   1.157       .  T
C4010      N4012   1.157       .  T
C4015      C4016   1.422       .  A
C4015      C4020   1.412       .  A
C4016      C4017   1.415       .  A
C4016      C4021   1.452       .  S
C4017      C4018   1.410       .  A
C4017      C4024   1.451       .  S
C4018      C4019   1.419       .  A
C4019      C4020   1.418       .  A
C4019      C4022   1.451       .  S
C4020      C4023   1.450       .  S
C4021      N4028   1.157       .  T
C4022      N4027   1.157       .  T
C4023      N4025   1.157       .  T
C4024      N4026   1.157       .  T
C4029      C4030   1.429       .  A
C4029      C4034   1.412       .  A
C4030      C4031   1.419       .  A
C4031      C4032   1.408       .  A
C4031      C4038   1.454       .  S
C4032      C4033   1.429       .  A
C4033      C4034   1.427       .  A
C4033      C4036   1.449       .  S
C4034      C4037   1.449       .  S
C4035      N4042   1.155       .  T
C4036      N4041   1.157       .  T
C4037      N4039   1.157       .  T
C4038      N4040   1.158       .  T
C4043      C4044   1.414       .  A
C4043      C4048   1.410       .  A
C4044      C4045   1.426       .  A
C4044      C4049   1.441       .  S
C4045      C4046   1.418       .  A
C4045      C4052   1.447       .  S
C4046      C4047   1.418       .  A
C4047      C4048   1.418       .  A
C4047      C4050   1.445       .  S
C4048      C4051   1.448       .  S
C4049      N4056   1.154       .  T
C4050      N4055   1.157       .  T
C4051      N4053   1.157       .  T
C4052      N4054   1.158       .  T
C4057      C4062   1.395       .  A
C4058      C4059   1.446   1_554  A
C4058      C4063   1.444       .  S
C4059      C4060   1.424       .  A
C4059      C4066   1.445       .  S
C4060      C4061   1.445       .  A
C4061      C4064   1.459       .  S
C4062      C4065   1.444       .  S
C4063      N4070   1.157       .  T
C4064      N4069   1.158       .  T
C4065      N4067   1.153       .  T
C4066      N4068   1.157       .  T
C4071      C4072   1.430       .  A
C4071      C4076   1.419       .  A
C4072      C4073   1.422       .  A
C4072      C4077   1.451       .  S
C4073      C4074   1.415       .  A
C4073      C4080   1.452       .  S
C4074      C4075   1.419       .  A
C4075      C4076   1.420       .  A
C4075      C4078   1.453       .  S
C4076      C4079   1.445       .  S
C4077      N4084   1.157       .  T
C4078      N4083   1.157       .  T
C4079      N4081   1.155       .  T
C4080      N4082   1.157       .  T
C4085      C4086   1.390       .  A
C4085      C4090   1.404       .  A
C4086      C4087   1.393       .  A
C4086      C4091   1.446       .  S
C4087      C4088   1.415       .  A
C4087      C4094   1.440       .  S
C4088      C4089   1.411       .  A
C4089      C4090   1.400       .  A
C4089      C4092   1.442       .  S
C4090      C4093   1.448       .  S
C4091      N4098   1.157       .  T
C4092      N4097   1.154       .  T
C4093      N4095   1.157       .  T
C4094      N4096   1.154       .  T
C4099      C4100   1.417       .  A
C4099      C4104   1.397       .  A
C4100      C4101   1.432       .  A
C4100      C4105   1.445       .  S
C4101      C4108   1.446       .  S
C4102      C4103   1.433       .  A
C4103      C4106   1.448       .  S
C4105      N4112   1.157       .  T
C4106      N4111   1.157       .  T
C4107      N4109   1.157       .  T
C4108      N4110   1.157       .  T
C4113      C4114   1.400       .  A
C4113      C4118   1.414       .  A
C4114      C4115   1.408       .  A
C4114      C4119   1.452       .  S
C4115      C4116   1.430       .  A
C4115      C4122   1.444       .  S
C4116      C4117   1.417       .  A
C4117      C4118   1.422       .  A
C4117      C4120   1.448       .  S
C4118      C4121   1.444       .  S
C4119      N4126   1.157       .  T
C4120      N4125   1.157       .  T
C4121      N4123   1.157       .  T
C4122      N4124   1.154       .  T
C4127      C4128   1.418       .  A
C4127      C4132   1.413       .  A
C4128      C4129   1.421   1_655  A
C4128      C4133   1.450       .  S
C4129      C4130   1.414       .  A
C4129      C4136   1.450       .  S
C4130      C4131   1.417       .  A
C4131      C4132   1.411   1_455  A
C4131      C4134   1.453       .  S
C4132      C4135   1.453       .  S
C4133      N4140   1.157       .  T
C4134      N4139   1.157       .  T
C4135      N4137   1.157       .  T
C4136      N4138   1.157       .  T
C4141      C4142   1.410       .  A
C4141      C4146   1.428       .  A
C4142      C4143   1.397       .  A
C4142      C4147   1.441       .  S
C4143      C4144   1.403       .  A
C4143      C4150   1.451       .  S
C4144      C4145   1.412       .  A
C4145      C4146   1.405       .  A
C4145      C4148   1.451       .  S
C4146      C4149   1.455       .  S
C4147      N4154   1.153       .  T
C4148      N4153   1.156       .  T
C4149      N4151   1.157       .  T
C4150      N4152   1.157       .  T
C4155      C4156   1.424       .  A
C4155      C4160   1.414       .  A
C4156      C4157   1.424       .  A
C4156      C4161   1.446       .  S
C4157      C4158   1.408       .  A
C4157      C4164   1.449       .  S
C4158      C4159   1.421       .  A
C4159      C4160   1.427       .  A
C4159      C4162   1.448       .  S
C4160      C4163   1.448       .  S
C4161      N4168   1.157       .  T
C4162      N4167   1.157   1_556  T
C4163      N4165   1.157       .  T
C4164      N4166   1.157       .  T
C4169      C4170   1.411       .  A
C4169      C4174   1.415       .  A
C4170      C4171   1.415       .  A
C4170      C4175   1.440       .  S
C4171      C4172   1.401       .  A
C4171      C4178   1.445       .  S
C4172      C4173   1.413       .  A
C4173      C4174   1.414       .  A
C4173      C4176   1.442       .  S
C4174      C4177   1.448       .  S
C4175      N4182   1.157       .  T
C4176      N4181   1.155       .  T
C4177      N4179   1.157       .  T
C4178      N4180   1.157       .  T
C4183      C4184   1.412       .  A
C4183      C4188   1.413       .  A
C4184      C4185   1.404       .  A
C4184      C4189   1.454       .  S
C4185      C4186   1.414       .  A
C4185      C4192   1.455       .  S
C4186      C4187   1.414       .  A
C4187      C4188   1.420       .  A
C4187      C4190   1.448       .  S
C4188      C4191   1.448       .  S
C4189      N4196   1.157       .  T
C4190      N4195   1.157       .  T
C4191      N4193   1.157       .  T
C4192      N4194   1.157       .  T
C4197      C4198   1.406       .  A
C4197      C4202   1.428       .  A
C4198      C4199   1.394       .  A
C4198      C4203   1.447       .  S
C4199      C4200   1.409       .  A
C4199      C4206   1.449       .  S
C4200      C4201   1.400       .  A
C4201      C4202   1.398       .  A
C4201      C4204   1.452       .  S
C4202      C4205   1.452       .  S
C4203      N4210   1.156       .  T
C4204      N4209   1.157       .  T
C4205      N4207   1.157       .  T
C4206      N4208   1.157       .  T
C4211      C4212   1.408       .  A
C4211      C4216   1.420       .  A
C4212      C4213   1.426       .  A
C4212      C4217   1.448       .  S
C4213      C4214   1.423       .  A
C4213      C4220   1.445       .  S
C4214      C4215   1.414       .  A
C4215      C4216   1.423       .  A
C4215      C4218   1.449       .  S
C4216      C4219   1.451       .  S
C4217      N4224   1.157       .  T
C4218      N4223   1.157       .  T
C4219      N4221   1.157       .  T
C4225      C4226   1.426       .  A
C4225      C4230   1.423       .  A
C4226      C4227   1.412       .  A
C4226      C4231   1.446       .  S
C4227      C4228   1.403       .  A
C4227      C4234   1.450       .  S
C4228      C4229   1.408       .  A
C4229      C4230   1.421       .  A
C4229      C4232   1.448       .  S
C4230      C4233   1.449       .  S
C4231      N4238   1.156       .  T
C4232      N4237   1.157       .  T
C4233      N4235   1.157       .  T
C4234      N4236   1.156       .  T
C4239      C4240   1.415       .  A
C4239      C4244   1.421       .  A
C4240      C4241   1.424       .  A
C4240      C4245   1.451       .  S
C4241      C4242   1.416       .  A
C4241      C4248   1.435       .  S
C4242      C4243   1.420       .  A
C4243      C4244   1.434       .  A
C4243      C4246   1.448       .  S
C4244      C4247   1.447       .  S
C4245      N4252   1.157       .  T
C4246      N4251   1.157       .  T
C4247      N4249   1.157       .  T
C4248      N4250   1.151       .  T
C4253      C4254   1.400       .  A
C4253      C4258   1.403       .  A
C4254      C4255   1.413       .  A
C4254      C4259   1.452       .  S
C4255      C4256   1.425       .  A
C4255      C4262   1.439       .  S
C4256      C4257   1.423       .  A
C4257      C4258   1.419       .  A
C4257      C4260   1.446       .  S
C4258      C4261   1.443       .  S
C4259      N4266   1.157       .  T
C4260      N4265   1.157       .  T
C4261      N4263   1.158       .  T
C4267      C4268   1.400       .  A
C4267      C4272   1.423       .  A
C4268      C4269   1.384       .  A
C4268      C4273   1.448       .  S
C4269      C4270   1.400       .  A
C4269      C4276   1.439       .  S
C4270      C4271   1.401       .  A
C4271      C4272   1.402       .  A
C4271      C4274   1.445       .  S
C4272      C4275   1.451       .  S
C4274      N4279   1.157       .  T
C4275      N4277   1.157       .  T
C4276      N4278   1.155       .  T
C4281      C4282   1.413       .  A
C4282      C4283   1.407       .  A
C4282      C4287   1.452       .  S
C4283      C4284   1.420       .  A
C4283      C4290   1.453       .  S
C4284      C4285   1.423       .  A
C4286      C4289   1.449       .  S
C4287      N4294   1.158       .  T
C4288      N4293   1.157       .  T
C4289      N4291   1.156       .  T
C4290      N4292   1.158       .  T
C4295      C4296   1.433   1_565  A
C4295      C4300   1.418       .  A
C4296      C4297   1.419       .  A
C4296      C4301   1.449       .  S
C4297      C4298   1.404       .  A
C4297      C4304   1.451       .  S
C4298      C4299   1.417   1_545  A
C4299      C4300   1.430       .  A
C4299      C4302   1.447       .  S
C4300      C4303   1.447       .  S
C4301      N4308   1.156       .  T
C4302      N4307   1.157       .  T
C4303      N4305   1.157       .  T
C4304      N4306   1.157       .  T
C4309      C4310   1.421       .  A
C4309      C4314   1.413       .  A
C4310      C4311   1.419       .  A
C4310      C4315   1.444       .  S
C4311      C4312   1.412   1_565  A
C4311      C4318   1.452   1_565  S
C4312      C4313   1.416   1_545  A
C4313      C4314   1.421       .  A
C4313      C4316   1.450       .  S
C4314      C4317   1.442       .  S
C4315      N4322   1.157       .  T
C4316      N4321   1.157       .  T
C4317      N4319   1.155       .  T
C4318      N4320   1.157       .  T
C4323      C4324   1.410       .  A
C4323      C4328   1.406       .  A
C4324      C4325   1.386   1_545  A
C4324      C4329   1.448       .  S
C4325      C4326   1.404       .  A
C4326      C4327   1.411       .  A
C4327      C4328   1.393   1_565  A
C4327      C4330   1.449       .  S
C4328      C4331   1.453       .  S
C4329      N4336   1.154       .  T
C4330      N4335   1.156       .  T
C4331      N4333   1.157       .  T
C4332      N4334   1.155       .  T
C4337      C4338   1.408       .  A
C4337      C4342   1.415       .  A
C4338      C4339   1.423       .  A
C4338      C4343   1.449       .  S
C4339      C4340   1.418       .  A
C4339      C4346   1.441       .  S
C4340      C4341   1.407       .  A
C4341      C4342   1.417       .  A
C4341      C4344   1.449       .  S
C4342      C4345   1.440       .  S
C4343      N4350   1.158       .  T
C4344      N4349   1.157       .  T
C4345      N4347   1.155       .  T
C4346      N4348   1.155       .  T
C4351      C4352   1.421       .  A
C4351      C4356   1.408       .  A
C4352      C4353   1.429       .  A
C4352      C4357   1.447       .  S
C4353      C4354   1.415       .  A
C4353      C4360   1.448       .  S
C4354      C4355   1.426       .  A
C4355      C4356   1.421       .  A
C4355      C4358   1.446       .  S
C4356      C4359   1.451       .  S
C4357      N4364   1.157       .  T
C4359      N4361   1.157       .  T
C4360      N4362   1.157       .  T
C4365      C4366   1.409       .  A
C4365      C4370   1.390       .  A
C4366      C4367   1.387       .  A
C4366      C4371   1.451       .  S
C4367      C4368   1.409       .  A
C4367      C4374   1.450       .  S
C4368      C4369   1.409       .  A
C4369      C4370   1.383       .  A
C4369      C4372   1.442       .  S
C4370      C4373   1.444       .  S
C4371      N4378   1.157       .  T
C4372      N4377   1.153       .  T
C4373      N4375   1.153       .  T
C4374      N4376   1.158       .  T
C4379      C4380   1.415       .  A
C4379      C4384   1.409       .  A
C4380      C4381   1.420       .  A
C4380      C4385   1.449       .  S
C4381      C4382   1.417       .  A
C4381      C4388   1.444       .  S
C4382      C4383   1.404       .  A
C4383      C4384   1.406       .  A
C4383      C4386   1.448       .  S
C4384      C4387   1.438       .  S
C4385      N4392   1.158       .  T
C4386      N4391   1.157       .  T
C4387      N4389   1.155       .  T
C4388      N4390   1.156       .  T
C4393      C4394   1.430       .  A
C4393      C4398   1.416       .  A
C4394      C4395   1.411       .  A
C4394      C4399   1.445       .  S
C4395      C4396   1.390       .  A
C4395      C4402   1.446       .  S
C4396      C4397   1.418       .  A
C4397      C4398   1.424       .  A
C4397      C4400   1.447       .  S
C4398      C4401   1.448       .  S
C4399      N4406   1.157       .  T
C4400      N4405   1.157       .  T
C4401      N4403   1.157       .  T
C4402      N4404   1.157       .  T
C4407      C4408   1.415       .  A
C4407      C4412   1.427       .  A
C4408      C4409   1.415       .  A
C4408      C4413   1.451       .  S
C4409      C4410   1.417       .  A
C4409      C4416   1.452       .  S
C4410      C4411   1.406       .  A
C4411      C4412   1.415       .  A
C4411      C4414   1.452       .  S
C4412      C4415   1.452       .  S
C4413      N4420   1.158       .  T
C4414      N4419   1.157       .  T
C4415      N4417   1.157       .  T
C4416      N4418   1.157       .  T
C4421      C4422   1.428       .  A
C4421      C4426   1.428       .  A
C4422      C4423   1.396       .  A
C4422      C4427   1.451       .  S
C4423      C4424   1.397       .  A
C4423      C4430   1.452       .  S
C4424      C4425   1.395       .  A
C4425      C4426   1.399       .  A
C4425      C4428   1.454       .  S
C4426      C4429   1.450   1_545  S
C4427      N4434   1.158       .  T
C4428      N4433   1.157       .  T
C4429      N4431   1.157       .  T
C4430      N4432   1.157       .  T
C4435      C4436   1.393       .  A
C4435      C4440   1.421   1_565  A
C4436      C4437   1.406       .  A
C4436      C4441   1.457       .  S
C4437      C4438   1.447   1_565  A
C4437      C4444   1.444       .  S
C4438      C4439   1.424       .  A
C4439      C4440   1.441       .  A
C4439      C4442   1.445       .  S
C4440      C4443   1.445       .  S
C4441      N4448   1.157       .  T
C4442      N4447   1.157       .  T
C4443      N4445   1.157       .  T
C4444      N4446   1.153       .  T
C4449      C4450   1.421       .  A
C4449      C4454   1.405       .  A
C4450      C4451   1.415       .  A
C4450      C4455   1.442       .  S
C4451      C4452   1.403       .  A
C4451      C4458   1.449       .  S
C4452      C4453   1.427       .  A
C4453      C4454   1.414       .  A
C4453      C4456   1.442       .  S
C4454      C4457   1.451   1_545  S
C4455      N4462   1.156       .  T
C4456      N4461   1.156       .  T
C4457      N4459   1.157       .  T
C4458      N4460   1.157       .  T
C4463      C4464   1.403       .  A
C4463      C4468   1.426       .  A
C4464      C4465   1.395       .  A
C4464      C4469   1.450       .  S
C4465      C4466   1.403       .  A
C4465      C4472   1.439       .  S
C4466      C4467   1.418       .  A
C4467      C4468   1.438       .  A
C4467      C4470   1.445       .  S
C4468      C4471   1.445       .  S
C4469      N4476   1.158       .  T
C4470      N4475   1.157       .  T
C4471      N4473   1.157       .  T
C4472      N4474   1.155       .  T
C4477      C4478   1.435       .  A
C4477      C4482   1.417       .  A
C4478      C4479   1.415       .  A
C4478      C4483   1.452       .  S
C4479      C4480   1.403       .  A
C4479      C4486   1.449       .  S
C4480      C4481   1.413       .  A
C4481      C4482   1.421       .  A
C4481      C4484   1.444       .  S
C4482      C4485   1.448       .  S
C4483      N4490   1.157       .  T
C4484      N4489   1.156       .  T
C4485      N4487   1.157       .  T
C4486      N4488   1.157       .  T
C4491      C4492   1.418       .  A
C4491      C4496   1.410       .  A
C4492      C4493   1.423       .  A
C4492      C4497   1.444       .  S
C4493      C4494   1.411       .  A
C4493      C4500   1.449       .  S
C4494      C4495   1.419       .  A
C4495      C4496   1.422       .  A
C4495      C4498   1.449       .  S
C4496      C4499   1.446       .  S
C4497      N4504   1.157       .  T
C4498      N4503   1.157       .  T
C4499      N4501   1.157       .  T
C4500      N4502   1.157       .  T
C4505      C4506   1.423       .  A
C4505      C4510   1.422       .  A
C4506      C4507   1.412       .  A
C4506      C4511   1.451       .  S
C4507      C4508   1.405       .  A
C4507      C4514   1.446       .  S
C4508      C4509   1.404       .  A
C4509      C4510   1.410       .  A
C4509      C4512   1.453       .  S
C4510      C4513   1.444       .  S
C4511      N4518   1.158       .  T
C4512      N4517   1.157       .  T
C4513      N4515   1.155       .  T
C4514      N4516   1.155   1_556  T
C4519      C4520   1.411       .  A
C4520      C4521   1.405       .  A
C4520      C4525   1.445       .  S
C4521      C4522   1.407       .  A
C4521      C4528   1.450       .  S
C4523      C4524   1.393   1_556  A
C4523      C4526   1.443       .  S
C4524      C4527   1.452       .  S
C4525      N4532   1.156       .  T
C4526      N4531   1.156       .  T
C4527      N4529   1.155       .  T
C4528      N4530   1.157       .  T
C4533      C4534   1.416       .  A
C4533      C4538   1.421       .  A
C4534      C4535   1.408       .  A
C4534      C4539   1.447       .  S
C4535      C4536   1.415       .  A
C4535      C4542   1.451       .  S
C4536      C4537   1.415       .  A
C4537      C4538   1.428       .  A
C4537      C4540   1.448       .  S
C4538      C4541   1.447       .  S
C4539      N4546   1.154       .  T
C4540      N4545   1.157       .  T
C4541      N4543   1.157       .  T
C4542      N4544   1.158       .  T
C4547      C4548   1.429       .  A
C4547      C4552   1.371       .  A
C4548      C4549   1.457       .  A
C4548      C4553   1.442       .  S
C4549      C4550   1.429       .  A
C4549      C4556   1.442       .  S
C4550      C4551   1.408       .  A
C4551      C4552   1.382       .  A
C4551      C4554   1.446       .  S
C4552      C4555   1.436       .  S
C4553      N4560   1.157       .  T
C4554      N4559   1.156       .  T
C4555      N4557   1.154       .  T
C4556      N4558   1.157       .  T
C4561      C4562   1.411   1_556  A
C4561      C4566   1.404       .  A
C4562      C4563   1.410       .  A
C4563      C4564   1.420   1_554  A
C4564      C4565   1.433       .  A
C4565      C4566   1.408       .  A
C4565      C4568   1.454       .  S
C4566      C4569   1.455       .  S
C4567      N4574   1.157       .  T
C4568      N4573   1.158       .  T
C4569      N4571   1.157       .  T
C4570      N4572   1.158       .  T
C4575      C4576   1.398       .  A
C4575      C4580   1.391       .  A
C4576      C4577   1.407       .  A
C4576      C4581   1.448       .  S
C4577      C4578   1.431       .  A
C4577      C4584   1.446       .  S
C4578      C4579   1.412       .  A
C4579      C4580   1.385       .  A
C4579      C4582   1.451       .  S
C4580      C4583   1.431   1_556  S
C4581      N4588   1.157       .  T
C4582      N4587   1.157   1_556  T
C4584      N4586   1.156       .  T
C4589      C4590   1.400       .  A
C4589      C4594   1.427       .  A
C4590      C4591   1.403       .  A
C4590      C4595   1.445       .  S
C4591      C4592   1.416       .  A
C4591      C4598   1.446       .  S
C4592      C4593   1.425       .  A
C4593      C4594   1.447       .  A
C4593      C4596   1.445       .  S
C4594      C4597   1.444       .  S
C4595      N4602   1.157       .  T
C4596      N4601   1.157       .  T
C4597      N4599   1.157       .  T
C4598      N4600   1.158       .  T
C4603      C4604   1.425       .  A
C4603      C4608   1.428       .  A
C4604      C4605   1.415       .  A
C4604      C4609   1.433       .  S
C4605      C4606   1.411       .  A
C4605      C4612   1.456       .  S
C4606      C4607   1.417       .  A
C4607      C4608   1.432       .  A
C4607      C4610   1.450       .  S
C4608      C4611   1.446       .  S
C4609      N4616   1.152       .  T
C4610      N4615   1.157       .  T
C4611      N4613   1.156       .  T
C4612      N4614   1.157       .  T
C4617      C4618   1.409       .  A
C4617      C4622   1.399       .  A
C4618      C4619   1.389       .  A
C4618      C4623   1.450       .  S
C4619      C4620   1.399       .  A
C4619      C4626   1.452       .  S
C4620      C4621   1.415       .  A
C4621      C4622   1.376       .  A
C4621      C4624   1.445       .  S
C4622      C4625   1.464       .  S
C4623      N4630   1.156       .  T
C4624      N4629   1.155       .  T
C4625      N4627   1.157       .  T
C4626      N4628   1.157       .  T
C4631      C4632   1.432       .  A
C4631      C4636   1.421       .  A
C4632      C4633   1.428       .  A
C4632      C4637   1.449       .  S
C4633      C4634   1.410       .  A
C4633      C4640   1.449       .  S
C4634      C4635   1.415       .  A
C4635      C4636   1.415       .  A
C4635      C4638   1.444       .  S
C4636      C4639   1.452       .  S
C4637      N4644   1.157       .  T
C4638      N4643   1.155       .  T
C4639      N4641   1.157       .  T
C4640      N4642   1.157       .  T
C4645      C4646   1.423       .  A
C4645      C4650   1.417       .  A
C4646      C4647   1.429       .  A
C4646      C4651   1.450       .  S
C4647      C4648   1.415       .  A
C4647      C4654   1.449       .  S
C4648      C4649   1.420       .  A
C4649      C4650   1.429       .  A
C4649      C4652   1.450       .  S
C4650      C4653   1.449       .  S
C4651      N4658   1.157       .  T
C4653      N4655   1.157       .  T
C4654      N4656   1.157       .  T
C4659      C4660   1.434       .  A
C4659      C4664   1.424       .  A
C4660      C4661   1.426       .  A
C4660      C4665   1.450       .  S
C4661      C4662   1.409       .  A
C4661      C4668   1.450       .  S
C4662      C4663   1.416       .  A
C4663      C4664   1.429       .  A
C4663      C4666   1.446       .  S
C4664      C4667   1.449       .  S
C4665      N4672   1.157       .  T
C4666      N4671   1.157       .  T
C4667      N4669   1.158       .  T
C4668      N4670   1.157       .  T
C4673      C4674   1.428       .  A
C4673      C4678   1.428       .  A
C4674      C4675   1.406       .  A
C4674      C4679   1.454       .  S
C4675      C4676   1.410       .  A
C4675      C4682   1.451       .  S
C4676      C4677   1.426       .  A
C4677      C4678   1.449       .  A
C4677      C4680   1.445       .  S
C4678      C4681   1.445       .  S
C4679      N4686   1.157       .  T
C4680      N4685   1.157       .  T
C4681      N4683   1.157       .  T
C4682      N4684   1.157       .  T
C4687      C4688   1.406       .  A
C4687      C4692   1.418       .  A
C4688      C4689   1.414       .  A
C4688      C4693   1.451       .  S
C4689      C4690   1.421       .  A
C4689      C4696   1.452       .  S
C4690      C4691   1.410       .  A
C4691      C4692   1.415       .  A
C4691      C4694   1.450       .  S
C4692      C4695   1.452       .  S
C4693      N4700   1.157       .  T
C4694      N4699   1.157       .  T
C4695      N4697   1.157       .  T
C4696      N4698   1.157       .  T
C4701      C4702   1.422       .  A
C4701      C4706   1.445   1_455  A
C4702      C4703   1.436   1_455  A
C4702      C4707   1.449       .  S
C4703      C4704   1.431       .  A
C4703      C4710   1.451   1_655  S
C4704      C4705   1.406       .  A
C4705      C4706   1.434       .  A
C4705      C4708   1.449       .  S
C4706      C4709   1.446       .  S
C4707      N4714   1.158       .  T
C4708      N4713   1.157       .  T
C4709      N4711   1.156       .  T
C4710      N4712   1.157       .  T
C4715      C4716   1.414       .  A
C4715      C4720   1.419       .  A
C4716      C4717   1.420       .  A
C4716      C4721   1.449       .  S
C4717      C4718   1.415   1_455  A
C4717      C4724   1.446       .  S
C4718      C4719   1.403       .  A
C4719      C4720   1.418   1_655  A
C4719      C4722   1.449       .  S
C4720      C4723   1.434       .  S
C4721      N4728   1.157       .  T
C4722      N4727   1.157       .  T
C4723      N4725   1.153       .  T
C4724      N4726   1.158       .  T
C4729      C4730   1.389       .  A
C4729      C4734   1.408       .  A
C4730      C4731   1.387       .  A
C4730      C4735   1.451       .  S
C4731      C4732   1.414   1_455  A
C4731      C4738   1.440       .  S
C4732      C4733   1.397   1_655  A
C4733      C4734   1.379       .  A
C4733      C4736   1.458   1_455  S
C4734      C4737   1.437       .  S
C4735      N4742   1.157       .  T
C4736      N4741   1.157       .  T
C4737      N4739   1.151       .  T
C4738      N4740   1.152       .  T
C4743      C4744   1.425       .  A
C4743      C4748   1.410       .  A
C4744      C4745   1.428       .  A
C4744      C4749   1.449       .  S
C4745      C4746   1.414       .  A
C4745      C4752   1.449       .  S
C4746      C4747   1.425       .  A
C4747      C4748   1.416       .  A
C4747      C4750   1.444       .  S
C4748      C4751   1.454       .  S
C4749      N4756   1.157       .  T
C4750      N4755   1.155       .  T
C4751      N4753   1.158       .  T
C4752      N4754   1.157       .  T
C4757      C4758   1.413       .  A
C4757      C4762   1.417       .  A
C4758      C4759   1.412       .  A
C4758      C4763   1.444       .  S
C4759      C4760   1.410       .  A
C4759      C4766   1.448       .  S
C4760      C4761   1.417       .  A
C4761      C4762   1.423       .  A
C4761      C4764   1.443       .  S
C4762      C4765   1.447       .  S
C4763      N4770   1.157       .  T
C4764      N4769   1.155       .  T
C4765      N4767   1.157       .  T
C4766      N4768   1.157       .  T
C4771      C4772   1.417       .  A
C4771      C4776   1.408       .  A
C4772      C4773   1.424       .  A
C4772      C4777   1.448       .  S
C4773      C4774   1.415       .  A
C4773      C4780   1.449       .  S
C4774      C4775   1.419       .  A
C4775      C4776   1.423       .  A
C4775      C4778   1.439       .  S
C4776      C4779   1.449       .  S
C4777      N4784   1.157       .  T
C4778      N4783   1.153       .  T
C4779      N4781   1.157       .  T
C4780      N4782   1.157       .  T
C4785      C4786   1.403       .  A
C4785      C4790   1.399       .  A
C4786      C4787   1.417       .  A
C4787      C4788   1.424       .  A
C4787      C4794   1.449       .  S
C4788      C4789   1.426       .  A
C4789      C4790   1.417       .  A
C4789      C4792   1.436       .  S
C4790      C4793   1.449       .  S
C4791      N4798   1.156       .  T
C4792      N4797   1.155       .  T
C4793      N4795   1.156       .  T
C4794      N4796   1.157       .  T
C4799      C4800   1.398       .  A
C4799      C4804   1.408       .  A
C4800      C4801   1.392       .  A
C4800      C4805   1.447       .  S
C4801      C4802   1.410       .  A
C4801      C4808   1.453       .  S
C4802      C4803   1.401       .  A
C4803      C4804   1.390       .  A
C4803      C4806   1.447   1_556  S
C4804      C4807   1.453   1_556  S
C4805      N4812   1.156       .  T
C4807      N4809   1.157       .  T
C4808      N4810   1.157       .  T
C4813      C4814   1.424       .  A
C4813      C4818   1.425       .  A
C4814      C4815   1.405       .  A
C4814      C4819   1.447       .  S
C4815      C4816   1.390       .  A
C4815      C4822   1.435       .  S
C4816      C4817   1.425       .  A
C4817      C4818   1.444       .  A
C4817      C4820   1.445       .  S
C4818      C4821   1.445       .  S
C4819      N4826   1.156       .  T
C4820      N4825   1.157       .  T
C4821      N4823   1.157       .  T
C4822      N4824   1.154       .  T
C4827      C4828   1.405       .  A
C4827      C4832   1.418       .  A
C4828      C4829   1.422       .  A
C4828      C4833   1.449       .  S
C4829      C4830   1.432       .  A
C4829      C4836   1.452       .  S
C4830      C4831   1.412       .  A
C4831      C4832   1.424       .  A
C4831      C4834   1.447       .  S
C4832      C4835   1.443       .  S
C4833      N4840   1.157       .  T
C4834      N4839   1.157       .  T
C4835      N4837   1.156       .  T
C4836      N4838   1.158       .  T
C4841      C4842   1.408       .  A
C4841      C4846   1.413       .  A
C4842      C4843   1.406       .  A
C4842      C4847   1.452       .  S
C4843      C4844   1.415       .  A
C4843      C4850   1.452       .  S
C4844      C4845   1.410       .  A
C4845      C4846   1.410       .  A
C4845      C4848   1.451   1_556  S
C4846      C4849   1.451       .  S
C4847      N4854   1.157       .  T
C4849      N4851   1.157       .  T
C4850      N4852   1.157       .  T
C4855      C4860   1.408       .  A
C4856      C4857   1.373   1_556  A
C4856      C4861   1.447       .  S
C4857      C4864   1.457   1_554  S
C4858      C4859   1.401       .  A
C4859      C4860   1.380       .  A
C4859      C4862   1.449   1_455  S
C4860      C4863   1.454       .  S
C4861      N4868   1.154       .  T
C4862      N4867   1.156       .  T
C4863      N4865   1.158   1_455  T
C4864      N4866   1.158       .  T
C4869      C4870   1.426   1_455  A
C4869      C4874   1.405       .  A
C4870      C4871   1.427       .  A
C4870      C4875   1.449       .  S
C4871      C4872   1.412       .  A
C4871      C4878   1.447       .  S
C4872      C4873   1.431   1_655  A
C4873      C4874   1.422       .  A
C4873      C4876   1.449       .  S
C4874      C4877   1.450       .  S
C4875      N4882   1.157       .  T
C4876      N4881   1.156       .  T
C4877      N4879   1.157       .  T
C4878      N4880   1.157       .  T
C4883      C4884   1.420       .  A
C4883      C4888   1.432       .  A
C4884      C4885   1.423   1_455  A
C4884      C4889   1.448       .  S
C4885      C4886   1.412       .  A
C4885      C4892   1.446       .  S
C4886      C4887   1.393       .  A
C4887      C4888   1.409   1_655  A
C4887      C4890   1.456       .  S
C4888      C4891   1.442       .  S
C4889      N4896   1.157       .  T
C4890      N4895   1.157       .  T
C4891      N4893   1.156   1_556  T
C4892      N4894   1.157       .  T
