geometry optimzed in LAMMPS
_audit_creation_date              2020-12-01 
_audit_creation_method            'lammps2cif' 
_symmetry_space_group_name_H-M    'P1' 
_symmetry_Int_Tables_number       1 
_symmetry_cell_setting            triclinic 
loop_ 
_symmetry_equiv_pos_as_xyz 
  x,y,z 
_cell_length_a                    53.83532255 
_cell_length_b                    53.71538140210086 
_cell_length_c                    29.346844643377658 
_cell_angle_alpha                 89.86196986621069 
_cell_angle_beta                  90.02986130152219 
_cell_angle_gamma                 90.43069346325159 
loop_ 
_atom_site_label 
_atom_site_type_symbol 
_atom_site_fract_x 
_atom_site_fract_y 
_atom_site_fract_z 
_atom_site_charge 
Fe1        Fe  0.42125160  0.89497569  0.82612252     1.65800
Fe2        Fe  0.39958861  0.84007591  0.86938121     1.73200
Fe3        Fe  0.45007834  0.84056502  0.79941588     1.54400
O4          O  0.43764737  0.85463847  0.73789393    -0.81000
O5          O  0.42791303  0.81977445  0.89912998    -0.79300
O6          O  0.42704656  0.89349696  0.75683725    -0.83500
O7          O  0.45848939  0.90122029  0.83778471    -0.78300
O8          O  0.42926934  0.80852599  0.78747799    -0.80100
O9          O  0.40230842  0.86440552  0.92281589    -0.82900
C10         C  0.47716854  0.89124832  0.81922775     0.97900
C11         C  0.43087265  0.87660205  0.72745997     1.05300
O12         O  0.42364864  0.85859496  0.83191868    -1.11800
O13         O  0.36896038  0.85875698  0.84425966    -0.74300
O14         O  0.38359390  0.89373512  0.81319700    -0.77800
O15         O  0.47617453  0.86932832  0.80321906    -0.78400
C16         C  0.36573008  0.87919841  0.82328211     0.96800
O17         O  0.41481084  0.90080348  0.89457351    -0.76400
O18         O  0.39282078  0.81324872  0.82095311    -0.81600
C19         C  0.45126702  0.81693500  0.89425754     0.99400
C20         C  0.40719645  0.80128172  0.79515317     1.05400
O21         O  0.46329809  0.82532053  0.85994271    -0.77200
C22         C  0.40718817  0.88735338  0.92737899     1.03700
Fe23       Fe  0.42346801  0.62050469  0.20525555     1.65800
Fe24       Fe  0.40696595  0.67390701  0.15140551     1.73200
Fe25       Fe  0.45463715  0.67469665  0.22820504     1.54400
O26         O  0.44125485  0.66208799  0.29087013    -0.81000
O27         O  0.43676169  0.69223538  0.12261041    -0.79300
O28         O  0.43036232  0.62310537  0.27389136    -0.83500
O29         O  0.46025402  0.61280690  0.19314689    -0.78300
O30         O  0.43410741  0.70698616  0.23648284    -0.80100
O31         O  0.41058320  0.64742634  0.10202782    -0.82900
C32         C  0.47949445  0.62290187  0.21031999     0.97900
C33         C  0.43481388  0.64013467  0.30259076     1.05300
O34         O  0.42839362  0.65642918  0.19478706    -1.11800
O35         O  0.37475282  0.65725986  0.17563458    -0.74300
O36         O  0.38617184  0.62504725  0.21869023    -0.77800
O37         O  0.47937805  0.64503694  0.22574307    -0.78400
C38         C  0.36960422  0.63925942  0.20228684     0.96800
O39         O  0.41536176  0.61165248  0.13852033    -0.76400
O40         O  0.40017924  0.70318246  0.19416638    -0.81600
C41         C  0.45954260  0.69635362  0.13138307     0.99400
C42         C  0.41341311  0.71515883  0.22233608     1.05400
O43         O  0.46992700  0.68939463  0.16833636    -0.77200
C44         C  0.41118470  0.62390424  0.10249947     1.03700
Fe45       Fe  0.37244852  0.57286737  0.70726285     1.65800
Fe46       Fe  0.31924907  0.59112698  0.65596547     1.73200
Fe47       Fe  0.31835193  0.54263200  0.73032298     1.54400
O48         O  0.34824055  0.51826816  0.73331399    -0.81000
O49         O  0.29213507  0.59916283  0.70289246    -0.79300
O50         O  0.37921281  0.53578139  0.69485777    -0.83500
O51         O  0.36910992  0.56549754  0.77587422    -0.78300
O52         O  0.30625328  0.52700848  0.66981055    -0.80100
O53         O  0.33796436  0.62287041  0.67776228    -0.82900
C54         C  0.35154248  0.56220237  0.80421739     0.97900
C55         C  0.37021907  0.51772480  0.71760257     1.05300
O56         O  0.33674035  0.56887978  0.69750038    -1.11800
O57         O  0.34441063  0.58611162  0.60419693    -0.74300
O58         O  0.38047784  0.58099951  0.63973702    -0.77800
O59         O  0.32934469  0.55722487  0.79222743    -0.78400
C60         C  0.36793491  0.58502427  0.60384271     0.96800
O61         O  0.36917310  0.61031685  0.72183019    -0.76400
O62         O  0.29866786  0.56173262  0.62958886    -0.81600
C63         C  0.27877787  0.58446774  0.72629847     0.99400
C64         C  0.29686060  0.53829918  0.63579326     1.05400
O65         O  0.28541941  0.56233460  0.73478027    -0.77200
C66         C  0.35588538  0.62744248  0.70478923     1.03700
Fe67       Fe  0.10294619  0.57721600  0.32380682     1.65800
Fe68       Fe  0.15720358  0.59910268  0.36675205     1.73200
Fe69       Fe  0.15690185  0.54804679  0.30018337     1.54400
O70         O  0.12759668  0.52262127  0.30333515    -0.81000
O71         O  0.18139679  0.60716189  0.31431652    -0.79300
O72         O  0.09737472  0.54055357  0.34212517    -0.83500
O73         O  0.10437640  0.56765640  0.25545338    -0.78300
O74         O  0.17103209  0.53521107  0.36148446    -0.80100
O75         O  0.13597732  0.62889943  0.34608697    -0.82900
C76         C  0.12174651  0.56472478  0.22655788     0.97900
C77         C  0.10617777  0.52189482  0.32142568     1.05300
O78         O  0.13888918  0.57478818  0.33062288    -1.11800
O79         O  0.13453680  0.59390916  0.42250506    -0.74300
O80         O  0.09736976  0.58770258  0.39093334    -0.77800
O81         O  0.14402541  0.56013196  0.23804558    -0.78400
C82         C  0.11098589  0.59290488  0.42508684     0.96800
O83         O  0.10466390  0.61412499  0.30452508    -0.76400
O84         O  0.18088325  0.57215978  0.39171082    -0.81600
C85         C  0.19484326  0.59191161  0.29281741     0.99400
C86         C  0.18317489  0.54860958  0.38960172     1.05400
O87         O  0.18902804  0.56901645  0.28991301    -0.77200
C88         C  0.11729249  0.63216473  0.32045365     1.03700
Fe89       Fe  0.05372137  0.89745425  0.20248707     1.65800
Fe90       Fe  0.06940311  0.84271156  0.15675735     1.73200
Fe91       Fe  0.02233444  0.84452459  0.23434582     1.54400
O92         O  0.03251440  0.86385780  0.29398981    -0.81000
O93         O  0.03881119  0.82955338  0.12268135    -0.79300
O94         O  0.05753169  0.89492446  0.27111507    -0.83500
O95         O  0.01661713  0.90583609  0.21037420    -0.78300
O96         O  0.04540093  0.81622885  0.25524124    -0.80100
O97         O  0.07273173  0.87132116  0.10962254    -0.82900
C98         C  0.99633004  0.89422625  0.21706319     0.97900
C99         C  0.04688306  0.88239837  0.30221626     1.05300
O100        O  0.04814321  0.86151653  0.19795478    -1.11800
O101        O  0.10114477  0.85452080  0.18948646    -0.74300
O102        O  0.09217467  0.89467003  0.19683158    -0.77800
O103        O  0.99526586  0.87067915  0.22050061    -0.78400
C104        C  0.10760226  0.87684533  0.19725703     0.96800
O105        O  0.05035851  0.90311131  0.13371171    -0.76400
O106        O  0.07047925  0.81114283  0.19627636    -0.81600
C107        C  0.01821254  0.82056381  0.13651867     0.99400
C108        C  0.06192680  0.80414276  0.23434385     1.05400
O109        O  0.01031820  0.82335092  0.17744747    -0.77200
C110        C  0.06346129  0.89273802  0.10355773     1.03700
Fe111      Fe  0.05324335  0.62504868  0.82306373     1.65800
Fe112      Fe  0.07384167  0.67877114  0.87192414     1.73200
Fe113      Fe  0.02343325  0.67952378  0.80195687     1.54400
O114        O  0.03642016  0.66808665  0.73872841    -0.81000
O115        O  0.04502439  0.69732734  0.90411550    -0.79300
O116        O  0.04612652  0.62854822  0.75421231    -0.83500
O117        O  0.01637632  0.61794513  0.83647891    -0.78300
O118        O  0.04317644  0.71250942  0.79409225    -0.80100
O119        O  0.07191731  0.65266410  0.92248079    -0.82900
C120        C  0.99770139  0.62767828  0.81742391     0.97900
C121        C  0.04257066  0.64627085  0.72620793     1.05300
O122        O  0.05019743  0.66107456  0.83267181    -1.11800
O123        O  0.10475612  0.66152153  0.84433666    -0.74300
O124        O  0.09047798  0.62788925  0.80827275    -0.77800
O125        O  0.99837933  0.64983784  0.80226992    -0.78400
C126        C  0.10817692  0.64218368  0.82027462     0.96800
O127        O  0.06134148  0.61673575  0.89026762    -0.76400
O128        O  0.07984934  0.70738618  0.82656949    -0.81600
C129        C  0.02158404  0.69974640  0.89944337     0.99400
C130        C  0.06507950  0.71996374  0.80244679     1.05400
O131        O  0.00976066  0.69220292  0.86422198    -0.77200
C132        C  0.06862024  0.62933547  0.92429567     1.03700
Fe133      Fe  0.37292311  0.94331596  0.32357522     1.65800
Fe134      Fe  0.31858457  0.91931450  0.36243952     1.73200
Fe135      Fe  0.31871458  0.97200700  0.30009947     1.54400
O136        O  0.34797339  0.99748315  0.30340922    -0.81000
O137        O  0.29449692  0.91278782  0.30942237    -0.79300
O138        O  0.37754563  0.97966572  0.34380913    -0.83500
O139        O  0.37151527  0.95376150  0.25579369    -0.78300
O140        O  0.30507023  0.98354244  0.36270570    -0.80100
O141        O  0.33967264  0.89010909  0.33805889    -0.82900
C142        C  0.35425867  0.95635171  0.22651823     0.97900
C143        C  0.36913007  0.99827956  0.32248832     1.05300
O144        O  0.33687333  0.94480395  0.32906447    -1.11800
O145        O  0.34101085  0.92292857  0.41865721    -0.74300
O146        O  0.37823497  0.93253983  0.39041132    -0.77800
O147        O  0.33174241  0.96056556  0.23738783    -0.78400
C148        C  0.36424148  0.92612357  0.42330171     0.96800
O149        O  0.37230597  0.90669488  0.30247948    -0.76400
O150        O  0.29515854  0.94580711  0.39028988    -0.81600
C151        C  0.28040586  0.92866177  0.29115063     0.99400
C152        C  0.29334238  0.96948928  0.39059365     1.05400
O153        O  0.28613905  0.95161307  0.28990569    -0.77200
C154        C  0.35904079  0.88802912  0.31365343     1.03700
Fe155      Fe  0.10149718  0.94918007  0.71077661     1.65800
Fe156      Fe  0.15566696  0.92983101  0.66552287     1.73200
Fe157      Fe  0.15508407  0.98011848  0.73475732     1.54400
O158        O  0.12507549  0.00440454  0.73197117    -0.81000
O159        O  0.18075069  0.92243316  0.71619041    -0.79300
O160        O  0.09488676  0.98561339  0.69348446    -0.83500
O161        O  0.10316580  0.95848325  0.77890094    -0.78300
O162        O  0.16874828  0.99399849  0.67368962    -0.80100
O163        O  0.13571642  0.89869599  0.68713260    -0.82900
C164        C  0.12014222  0.96241333  0.80823296     0.97900
C165        C  0.10350589  0.00445336  0.71425348     1.05300
O166        O  0.13736467  0.95306278  0.70342017    -1.11800
O167        O  0.13227526  0.93489092  0.61115517    -0.74300
O168        O  0.09520883  0.93925883  0.64348974    -0.77800
O169        O  0.14248093  0.96749259  0.79721376    -0.78400
C170        C  0.10879544  0.93583457  0.60871481     0.96800
O171        O  0.10455131  0.91238406  0.72966196    -0.76400
O172        O  0.17792459  0.95804246  0.63925918    -0.81600
C173        C  0.19403172  0.93751617  0.73877683     0.99400
C174        C  0.17945734  0.98162891  0.64250783     1.05400
O175        O  0.18782751  0.96012070  0.74412854    -0.77200
C176        C  0.11760678  0.89477578  0.71406368     1.03700
Fe177      Fe  0.59974233  0.44319676  0.32668794     1.65800
Fe178      Fe  0.65329597  0.42330635  0.37547725     1.73200
Fe179      Fe  0.65447867  0.47262242  0.30248312     1.54400
O180        O  0.64191840  0.45953012  0.24040542    -0.81000
O181        O  0.67315666  0.45222680  0.40447334    -0.79300
O182        O  0.60247803  0.45016314  0.25755181    -0.83500
O183        O  0.59382469  0.48033361  0.33935727    -0.78300
O184        O  0.68660554  0.45212756  0.29415460    -0.80100
O185        O  0.62808087  0.42655475  0.42718693    -0.82900
C186        C  0.60361822  0.49877636  0.31899127     0.97900
C187        C  0.61977364  0.45400612  0.22882222     1.05300
O188        O  0.63580434  0.44633002  0.33510472    -1.11800
O189        O  0.63489258  0.39226584  0.35104217    -0.74300
O190        O  0.60174237  0.40556397  0.31290820    -0.77800
O191        O  0.62552678  0.49792088  0.30313114    -0.78400
C192        C  0.61566626  0.38815845  0.32704889     0.96800
O193        O  0.59199433  0.43550017  0.39446894    -0.76400
O194        O  0.68098187  0.41612133  0.32947597    -0.81600
C195        C  0.67623183  0.47552829  0.39826477     0.99400
C196        C  0.69366859  0.43032544  0.30402462     1.05400
O197        O  0.66834919  0.48699682  0.36307634    -0.77200
C198        C  0.60476788  0.42923111  0.42892717     1.03700
Fe199      Fe  0.87205451  0.44933931  0.71346782     1.65800
Fe200      Fe  0.81972980  0.42807356  0.66193211     1.73200
Fe201      Fe  0.81706267  0.47827934  0.73162605     1.54400
O202        O  0.82834012  0.46620677  0.79548544    -0.81000
O203        O  0.79902891  0.45578705  0.63130810    -0.79300
O204        O  0.86833904  0.45900413  0.78107980    -0.83500
O205        O  0.87830141  0.48603141  0.69595576    -0.78300
O206        O  0.78463377  0.45708301  0.73869413    -0.80100
O207        O  0.84535650  0.43296198  0.61090056    -0.82900
C208        C  0.86850395  0.50473471  0.71499567     0.97900
C209        C  0.85046165  0.46203440  0.80868819     1.05300
O210        O  0.83628523  0.45187373  0.70209300    -1.11800
O211        O  0.83904047  0.39782295  0.68753272    -0.74300
O212        O  0.86918321  0.41241780  0.73234056    -0.77800
O213        O  0.84650713  0.50382836  0.73082872    -0.78400
C214        C  0.85671677  0.39444617  0.71561190     0.96800
O215        O  0.88100314  0.43880972  0.64780752    -0.76400
O216        O  0.79199142  0.42012381  0.70833419    -0.81600
C217        C  0.79630554  0.47921997  0.63520587     0.99400
C218        C  0.77840446  0.43456645  0.73134895     1.05400
O219        O  0.80445285  0.49155898  0.66921914    -0.77200
C220        C  0.86885698  0.43403498  0.61181717     1.03700
Fe221      Fe  0.92221177  0.40074562  0.21005807     1.65800
Fe222      Fe  0.90215964  0.34598802  0.16439797     1.73200
Fe223      Fe  0.95244623  0.34664489  0.23568087     1.54400
O224        O  0.97777235  0.37582008  0.23082355    -0.81000
O225        O  0.89736476  0.31713498  0.20922114    -0.79300
O226        O  0.95938110  0.40811884  0.19824548    -0.83500
O227        O  0.92859701  0.39878091  0.27905898    -0.78300
O228        O  0.96555224  0.33111339  0.17501652    -0.80100
O229        O  0.87135252  0.36211545  0.19342677    -0.82900
C230        C  0.93364800  0.38231134  0.30871341     0.97900
C231        C  0.97834175  0.39802032  0.21593816     1.05300
O232        O  0.92568676  0.36446481  0.20304858    -1.11800
O233        O  0.90228736  0.37186220  0.11290533    -0.74300
O234        O  0.91483142  0.40788115  0.14198045    -0.77800
O235        O  0.94066473  0.36047448  0.29813055    -0.78400
C236        C  0.90636745  0.39500811  0.10921153     0.96800
O237        O  0.88465968  0.39771326  0.22394643    -0.76400
O238        O  0.93102804  0.32815694  0.13229932    -0.81600
C239        C  0.91116382  0.30601180  0.23728023     0.99400
C240        C  0.95403566  0.32416455  0.13903715     1.05400
O241        O  0.93226818  0.31449926  0.24854618    -0.77200
C242        C  0.86746843  0.38208158  0.21531396     1.03700
Fe243      Fe  0.92304218  0.12702576  0.81981018     1.65800
Fe244      Fe  0.90289653  0.17995966  0.87009012     1.73200
Fe245      Fe  0.95355445  0.18195539  0.80061208     1.54400
O246        O  0.97848109  0.15246247  0.80359757    -0.81000
O247        O  0.89646585  0.20791094  0.82406861    -0.79300
O248        O  0.95947461  0.12038213  0.83678595    -0.83500
O249        O  0.93261475  0.13024480  0.75155563    -0.78300
O250        O  0.96638741  0.19594653  0.86282226    -0.80100
O251        O  0.87227620  0.16148696  0.84320772    -0.82900
C252        C  0.93750855  0.14772147  0.72356146     0.97900
C253        C  0.97853084  0.13017975  0.81843526     1.05300
O254        O  0.92653449  0.16298433  0.83041487    -1.11800
O255        O  0.90594547  0.15426777  0.92141543    -0.74300
O256        O  0.91251085  0.11834589  0.88640959    -0.77800
O257        O  0.94247319  0.16982987  0.73647856    -0.78400
C258        C  0.90711602  0.13075588  0.92184771     0.96800
O259        O  0.88632841  0.13018256  0.80108022    -0.76400
O260        O  0.93086773  0.20017667  0.90166439    -0.81600
C261        C  0.91092772  0.22091394  0.79960020     0.99400
C262        C  0.95413817  0.20376636  0.89712982     1.05400
O263        O  0.93295622  0.21414331  0.79086419    -0.77200
C264        C  0.86867823  0.14344171  0.81595613     1.03700
Fe265      Fe  0.60045099  0.07131183  0.71426354     1.65800
Fe266      Fe  0.65389789  0.09357939  0.66682643     1.73200
Fe267      Fe  0.65588615  0.04319618  0.73798477     1.54400
O268        O  0.64186529  0.05398926  0.80058491    -0.81000
O269        O  0.67417654  0.06584974  0.63555718    -0.79300
O270        O  0.60292783  0.06467942  0.78335851    -0.83500
O271        O  0.59482785  0.03403888  0.70184875    -0.78300
O272        O  0.68713076  0.06531712  0.74995157    -0.80100
O273        O  0.62860377  0.09048526  0.61540213    -0.82900
C274        C  0.60560274  0.01517981  0.71844373     0.97900
C275        C  0.61993298  0.06003838  0.81212516     1.05300
O276        O  0.63673795  0.06932762  0.70618259    -1.11800
O277        O  0.63534944  0.12388107  0.69348893    -0.74300
O278        O  0.60159314  0.10898028  0.72824199    -0.77800
O279        O  0.62781034  0.01628135  0.73319843    -0.78400
C280        C  0.61565723  0.12697727  0.71660248     0.96800
O281        O  0.59287844  0.07841594  0.64629951    -0.76400
O282        O  0.68177791  0.10065575  0.71241657    -0.81600
C283        C  0.67893961  0.04293139  0.64209839     0.99400
C284        C  0.69420302  0.08714182  0.73913700     1.05400
O285        O  0.67175234  0.03091134  0.67734334    -0.77200
C286        C  0.60559441  0.08590331  0.61250668     1.03700
Fe287      Fe  0.87680981  0.07640780  0.32109298     1.65800
Fe288      Fe  0.82391276  0.09613658  0.37315326     1.73200
Fe289      Fe  0.82156113  0.04527306  0.30320466     1.54400
O290        O  0.83427913  0.05550122  0.23876219    -0.81000
O291        O  0.80647131  0.06766968  0.40804025    -0.79300
O292        O  0.87240093  0.07058161  0.25199938    -0.83500
O293        O  0.88417308  0.03931501  0.33125571    -0.78300
O294        O  0.79020343  0.06630927  0.29061218    -0.80100
O295        O  0.85158735  0.09575508  0.42112756    -0.82900
C296        C  0.87281079  0.01953184  0.31977300     0.97900
C297        C  0.85513256  0.06395632  0.22501028     1.05300
O298        O  0.84078887  0.07251201  0.33268299    -1.11800
O299        O  0.83963975  0.12714131  0.34290181    -0.74300
O300        O  0.87407113  0.11406196  0.30889108    -0.77800
O301        O  0.84993445  0.01938488  0.30906264    -0.78400
C302        C  0.85927321  0.13126851  0.32007949     0.96800
O303        O  0.88653165  0.08340347  0.38852166    -0.76400
O304        O  0.79366319  0.10075778  0.33136508    -0.81600
C305        C  0.80101224  0.04484346  0.40189990     0.99400
C306        C  0.78207468  0.08730348  0.30304131     1.05400
O307        O  0.80645582  0.03318429  0.36537476    -0.77200
C308        C  0.87472388  0.09179688  0.42257721     1.03700
Fe309      Fe  0.55061712  0.39381654  0.82656367     1.65800
Fe310      Fe  0.57011538  0.33932103  0.87306708     1.73200
Fe311      Fe  0.51853595  0.33981259  0.80477313     1.54400
O312        O  0.49370787  0.36905571  0.80972360    -0.81000
O313        O  0.57465863  0.31134790  0.82640268    -0.79300
O314        O  0.51372870  0.40163378  0.83855390    -0.83500
O315        O  0.54396231  0.39103506  0.75784139    -0.78300
O316        O  0.50586956  0.32522034  0.86651661    -0.80100
O317        O  0.60158077  0.35628343  0.84547650    -0.82900
C318        C  0.53751012  0.37442481  0.72935328     0.97900
C319        C  0.49407242  0.39142782  0.82351054     1.05300
O320        O  0.54639427  0.35768394  0.83498416    -1.11800
O321        O  0.56933295  0.36489146  0.92465016    -0.74300
O322        O  0.55795041  0.40098715  0.89434161    -0.77800
O323        O  0.52958962  0.35293958  0.74118775    -0.78400
C324        C  0.56547401  0.38805452  0.92773980     0.96800
O325        O  0.58824666  0.39109345  0.81275021    -0.76400
O326        O  0.54132301  0.32057499  0.90563912    -0.81600
C327        C  0.55969736  0.29966377  0.80089576     0.99400
C328        C  0.51794093  0.31752582  0.90117578     1.05400
O329        O  0.53796440  0.30736276  0.79274992    -0.77200
C330        C  0.60561976  0.37624090  0.82322643     1.03700
Fe331      Fe  0.55324545  0.12070607  0.21410362     1.65800
Fe332      Fe  0.57252190  0.17526510  0.16679209     1.73200
Fe333      Fe  0.52182770  0.17422400  0.23616806     1.54400
O334        O  0.49732643  0.14426088  0.23323506    -0.81000
O335        O  0.57860328  0.20230352  0.21495510    -0.79300
O336        O  0.51659430  0.11288635  0.19984799    -0.83500
O337        O  0.54537312  0.12307518  0.28251896    -0.78300
O338        O  0.50842372  0.18822711  0.17466306    -0.80100
O339        O  0.60379548  0.15733654  0.19154475    -0.82900
C340        C  0.54023231  0.13996628  0.31116132     0.97900
C341        C  0.49750436  0.12207934  0.21837943     1.05300
O342        O  0.54918919  0.15668277  0.20542255    -1.11800
O343        O  0.56973808  0.15033138  0.11420951    -0.74300
O344        O  0.56192251  0.11373708  0.14688316    -0.77800
O345        O  0.53374217  0.16181260  0.29943214    -0.78400
C346        C  0.56767072  0.12684371  0.11239178     0.96800
O347        O  0.59049795  0.12400589  0.22980653    -0.76400
O348        O  0.54394142  0.19518545  0.13680940    -0.81600
C349        C  0.56358702  0.21436703  0.23944550     0.99400
C350        C  0.52050491  0.19739668  0.14110362     1.05400
O351        O  0.54154747  0.20688149  0.24639979    -0.77200
C352        C  0.60788778  0.13818457  0.21584931     1.03700
C353        C  0.50515313  0.29017934  0.01716204    -0.27500
C354        C  0.49244230  0.26817079  0.00564343     0.06100
C355        C  0.48358775  0.26531005  0.96075136     0.25700
C356        C  0.48977009  0.28294969  0.92709849    -0.12000
C357        C  0.50504720  0.30344970  0.93777926    -0.25900
C358        C  0.51156147  0.30758830  0.98359293     0.36500
C359        C  0.49338827  0.24683051  0.03799424     0.06100
F360        F  0.47048210  0.24463972  0.94886323    -0.19700
H361        H  0.48441570  0.27946839  0.89209278     0.15900
F362        F  0.52560192  0.32766703  0.99537800    -0.23400
H363        H  0.51206173  0.29286383  0.05149718     0.17700
C364        C  0.50713259  0.22563791  0.02615929     0.25700
C365        C  0.51434239  0.20859268  0.05963516    -0.12000
C366        C  0.50756324  0.21194266  0.10540161    -0.26000
C367        C  0.49191679  0.23186795  0.11668937     0.36600
C368        C  0.48519654  0.24937372  0.08327351    -0.27600
F369        F  0.51578341  0.22272451  0.98306658    -0.19700
H370        H  0.52644032  0.19343295  0.05019745     0.15900
F371        F  0.48515362  0.23575615  0.16062846    -0.23500
H372        H  0.47480448  0.26566131  0.09320825     0.17800
C373        C  0.67813726  0.14153641  0.23148781    -0.27500
C374        C  0.68355295  0.11707365  0.24513742     0.06100
C375        C  0.66390548  0.09985860  0.24987907     0.25700
C376        C  0.63944902  0.10703621  0.24104176    -0.12000
C377        C  0.63395556  0.13147062  0.22705969    -0.25900
C378        C  0.65367532  0.14870285  0.22230201     0.36500
C379        C  0.70946007  0.11013011  0.25695867     0.06100
F380        F  0.66820487  0.07626420  0.26438130    -0.19700
H381        H  0.62477730  0.09328897  0.24482676     0.15900
F382        F  0.64939522  0.17256625  0.20936822    -0.23400
H383        H  0.69295056  0.15514504  0.22783483     0.17700
C384        C  0.72052700  0.08852431  0.23938488     0.25700
C385        C  0.74436389  0.08158090  0.25346845    -0.12000
C386        C  0.75775096  0.09606523  0.28513461    -0.26000
C387        C  0.74693075  0.11823383  0.30124045     0.36600
C388        C  0.72311404  0.12505934  0.28724769    -0.27600
F389        F  0.70838315  0.07419077  0.20839438    -0.19700
H390        H  0.75218949  0.06460502  0.23996456     0.15900
F391        F  0.75895985  0.13311066  0.33151649    -0.23500
H392        H  0.71500132  0.14180140  0.30119487     0.17800
C393        C  0.58365063  0.18149455  0.77385117    -0.27500
C394        C  0.59253797  0.20176037  0.74802479     0.06100
C395        C  0.60994963  0.19727728  0.71327293     0.25700
C396        C  0.61790069  0.17305133  0.70431635    -0.12000
C397        C  0.60841976  0.15268650  0.72917812    -0.25900
C398        C  0.59122591  0.15720851  0.76433393     0.36500
C399        C  0.58368362  0.22739158  0.75778046     0.06100
F400        F  0.61861812  0.21615497  0.68672601    -0.19700
H401        H  0.63095776  0.17016948  0.67679493     0.15900
F402        F  0.58177124  0.13824192  0.78976663    -0.23400
H403        H  0.57078705  0.18444836  0.80163388     0.17700
C404        C  0.55830417  0.23211153  0.76547470     0.25700
C405        C  0.55043540  0.25598614  0.77736116    -0.12000
C406        C  0.56765509  0.27557732  0.78187725    -0.26000
C407        C  0.59280039  0.27119360  0.77208699     0.36600
C408        C  0.60071075  0.24731070  0.76051114    -0.27600
F409        F  0.54107377  0.21365040  0.76168838    -0.19700
H410        H  0.53095636  0.25893916  0.78467095     0.15900
F411        F  0.60976907  0.28998866  0.77403310    -0.23500
H412        H  0.62033710  0.24428434  0.75494790     0.17800
C413        C  0.73482542  0.01360503  0.58694241    -0.27500
C414        C  0.73058137  0.01916828  0.54068815     0.06100
C415        C  0.70714164  0.02829814  0.52782303     0.25700
C416        C  0.68951774  0.03429200  0.56103544    -0.12000
C417        C  0.69457659  0.03061277  0.60750284    -0.25900
C418        C  0.71694900  0.01916174  0.62011785     0.36500
C419        C  0.75165228  0.02016691  0.50771577     0.06100
F420        F  0.70213650  0.03373511  0.48358349    -0.19700
H421        H  0.67239499  0.04313018  0.55062546     0.15900
F422        F  0.72259219  0.01574909  0.66477428    -0.23400
H423        H  0.75265678  0.00645494  0.59768878     0.17700
C424        C  0.77264431  0.03489974  0.51786355     0.25700
C425        C  0.78983705  0.04091963  0.48388915    -0.12000
C426        C  0.78666541  0.03244744  0.43895720    -0.26000
C427        C  0.76691994  0.01587429  0.42960436     0.36600
C428        C  0.74950616  0.00991904  0.46374172    -0.27600
F429        F  0.77530470  0.04558250  0.55948103    -0.19700
H430        H  0.80489979  0.05364270  0.49213615     0.15900
F431        F  0.76311008  0.00731336  0.38667879    -0.23500
H432        H  0.73357467  0.99840546  0.45516395     0.17800
C433        C  0.62350631  0.07849390  0.93608322    -0.27500
C434        C  0.59844684  0.07651726  0.94883781     0.06100
C435        C  0.58122407  0.06602361  0.91849692     0.25700
C436        C  0.58872952  0.05930587  0.87473048    -0.12000
C437        C  0.61353917  0.06272323  0.86078258    -0.25900
C438        C  0.63112524  0.07144767  0.89249693     0.36500
C439        C  0.58983741  0.08891075  0.99056506     0.06100
F440        F  0.55684327  0.06414090  0.92992340    -0.19700
H441        H  0.57487278  0.05241316  0.85099346     0.15900
F442        F  0.65519169  0.07511620  0.88030375    -0.23400
H443        H  0.63695882  0.08666957  0.95926417     0.17700
C444        C  0.57843799  0.07561431  0.02614269     0.25700
C445        C  0.57047466  0.08814599  0.06516861    -0.12000
C446        C  0.57354620  0.11413386  0.06901147    -0.26000
C447        C  0.58442204  0.12737462  0.03245453     0.36600
C448        C  0.59254818  0.11477782  0.99388772    -0.27600
F449        F  0.57564237  0.05052172  0.02365604    -0.19700
H450        H  0.56230741  0.07741729  0.09269597     0.15900
F451        F  0.58791970  0.15241130  0.03417142    -0.23500
H452        H  0.60101215  0.12527516  0.96632639     0.17800
C453        C  0.55848611  0.14248396  0.43539729    -0.27500
C454        C  0.55785866  0.11702101  0.44644898     0.06100
C455        C  0.54809033  0.09993176  0.41515804     0.25700
C456        C  0.54065646  0.10801698  0.37219662    -0.12000
C457        C  0.54286539  0.13324563  0.35968170    -0.25900
C458        C  0.55081854  0.15066999  0.39236308     0.36500
C459        C  0.56985726  0.10802664  0.48835672     0.06100
F460        F  0.54757296  0.07520470  0.42483897    -0.19700
H461        H  0.53430446  0.09425853  0.34776955     0.15900
F462        F  0.55298809  0.17519624  0.38173331    -0.23400
H463        H  0.56591197  0.15586456  0.45951629     0.17700
C464        C  0.59544134  0.11165427  0.49437993     0.25700
C465        C  0.60700243  0.10322907  0.53384721    -0.12000
C466        C  0.59327568  0.09120534  0.56842692    -0.26000
C467        C  0.56770024  0.08676979  0.56149675     0.36600
C468        C  0.55617785  0.09504755  0.52153262    -0.27600
F469        F  0.60928423  0.12327525  0.46190011    -0.19700
H470        H  0.62672288  0.10683343  0.53774528     0.15900
F471        F  0.55372016  0.07493209  0.59346566    -0.23500
H472        H  0.53644791  0.09176370  0.51679012     0.17800
C473        C  0.88937938  0.11886287  0.04535373    -0.27500
C474        C  0.88248560  0.09369124  0.04437081     0.06100
C475        C  0.88504640  0.08023818  0.00373022     0.25700
C476        C  0.89401324  0.09208969  0.96430529    -0.12000
C477        C  0.90055103  0.11754334  0.96487507    -0.25900
C478        C  0.89836070  0.13073345  0.00623712     0.36500
C479        C  0.87363906  0.08174738  0.08681708     0.06100
F480        F  0.87838946  0.05584281  0.00199309    -0.19700
H481        H  0.89517304  0.08150394  0.93303900     0.15900
F482        F  0.90472344  0.15518891  0.00906735    -0.23400
H483        H  0.88781857  0.12935335  0.07668690     0.17700
C484        C  0.89028257  0.06841132  0.11414534     0.25700
C485        C  0.88352057  0.06132725  0.15833357    -0.12000
C486        C  0.85992214  0.06708833  0.17570549    -0.26000
C487        C  0.84265545  0.07899560  0.14719129     0.36600
C488        C  0.84962985  0.08652211  0.10318079    -0.27600
F489        F  0.91363872  0.06374818  0.09917520    -0.19700
H490        H  0.89709128  0.05219491  0.17973935     0.15900
F491        F  0.81986924  0.08520942  0.16313344    -0.23500
H492        H  0.83670292  0.09703418  0.08258528     0.17800
C493        C  0.93587503  0.11030540  0.61425640    -0.27500
C494        C  0.92598305  0.12759249  0.58359216     0.06100
C495        C  0.92330735  0.15250996  0.59738849     0.25700
C496        C  0.92880224  0.15951996  0.64229933    -0.12000
C497        C  0.93656868  0.14166864  0.67424300    -0.25900
C498        C  0.94103946  0.11716397  0.65922066     0.36500
C499        C  0.91382233  0.11846855  0.54153737     0.06100
F500        F  0.91399217  0.16968598  0.56812679    -0.19700
H501        H  0.92539478  0.17851094  0.65281542     0.15900
F502        F  0.94938583  0.09949978  0.68850839    -0.23400
H503        H  0.93792784  0.09101810  0.60427183     0.17700
C504        C  0.92714548  0.10771723  0.50549171     0.25700
C505        C  0.91445736  0.09825908  0.46727009    -0.12000
C506        C  0.88828493  0.09894275  0.46497587    -0.26000
C507        C  0.87519229  0.10903968  0.50224569     0.36600
C508        C  0.88787988  0.11883238  0.53957077    -0.27600
F509        F  0.95232413  0.10681384  0.50689284    -0.19700
H510        H  0.92511321  0.09080495  0.43926121     0.15900
F511        F  0.84999882  0.10980281  0.50281990    -0.23500
H512        H  0.87732425  0.12646333  0.56759589     0.17800
C513        C  0.75052364  0.12925274  0.75559031    -0.27500
C514        C  0.76753477  0.11295216  0.77579330     0.06100
C515        C  0.75948491  0.08885541  0.78807026     0.25700
C516        C  0.73526862  0.08090527  0.77800739    -0.12000
C517        C  0.71851884  0.09684637  0.75581362    -0.25900
C518        C  0.72630221  0.12143569  0.74579682     0.36500
C519        C  0.79352937  0.12131008  0.78387562     0.06100
F520        F  0.77499559  0.07299936  0.80995323    -0.19700
H521        H  0.72987591  0.06200089  0.78653790     0.15900
F522        F  0.71078558  0.13790024  0.72549411    -0.23400
H523        H  0.75620120  0.14796392  0.74623794     0.17700
C524        C  0.81373147  0.10664510  0.77024925     0.25700
C525        C  0.83805691  0.11433285  0.77960212    -0.12000
C526        C  0.84284937  0.13690247  0.80234717    -0.26000
C527        C  0.82261419  0.15218461  0.81382851     0.36600
C528        C  0.79827306  0.14436661  0.80473751    -0.27600
F529        F  0.81000946  0.08500358  0.74736138    -0.19700
H530        H  0.85315322  0.10229671  0.76963888     0.15900
F531        F  0.82620307  0.17458883  0.83419189    -0.23500
H532        H  0.78302535  0.15617861  0.81486007     0.17800
C533        C  0.89347879  0.18748682  0.27181453    -0.27500
C534        C  0.88026233  0.20716781  0.29131086     0.06100
C535        C  0.85939400  0.20181782  0.31847120     0.25700
C536        C  0.85223199  0.17714104  0.32652126    -0.12000
C537        C  0.86574097  0.15731573  0.30774618    -0.25900
C538        C  0.88638636  0.16282121  0.27980923     0.36500
C539        C  0.88787985  0.23316828  0.28165202     0.06100
F540        F  0.84635517  0.22042202  0.33828180    -0.19700
H541        H  0.83638502  0.17358893  0.34839254     0.15900
F542        F  0.89986783  0.14447148  0.26022124    -0.23400
H543        H  0.90928704  0.19125202  0.24992924     0.17700
C544        C  0.91270064  0.24096675  0.28714489     0.25700
C545        C  0.91994931  0.26505578  0.27451327    -0.12000
C546        C  0.90266972  0.28170916  0.25578246    -0.26000
C547        C  0.87766119  0.27402958  0.25163702     0.36600
C548        C  0.87044461  0.25003052  0.26453907    -0.27600
F549        F  0.92996804  0.22522164  0.30434729    -0.19700
H550        H  0.93932354  0.27037947  0.27800107     0.15900
F551        F  0.86017964  0.28948756  0.23432079    -0.23500
H552        H  0.85125836  0.24431712  0.25970324     0.17800
C553        C  0.98619511  0.25723845  0.95750794    -0.27500
C554        C  0.97863750  0.25307266  0.00285129     0.06100
C555        C  0.96660688  0.23044755  0.01361594     0.25700
C556        C  0.96052952  0.21346517  0.97919679    -0.12000
C557        C  0.96656477  0.21840990  0.93347416    -0.25900
C558        C  0.98037732  0.24001142  0.92309452     0.36500
C559        C  0.97865753  0.27392306  0.03633637     0.06100
F560        F  0.95839887  0.22585063  0.05657103    -0.19700
H561        H  0.94969840  0.19704299  0.98791041     0.15900
F562        F  0.98602547  0.24569830  0.87920679    -0.23400
H563        H  0.99528464  0.27459302  0.94829395     0.17700
C564        C  0.98673534  0.27082002  0.08173010     0.25700
C565        C  0.98099117  0.28871425  0.11491761    -0.12000
C566        C  0.96692219  0.30973211  0.10334579    -0.26000
C567        C  0.96090804  0.31384726  0.05730231     0.36600
C568        C  0.96685879  0.29620779  0.02425655    -0.27600
F569        F  0.99895458  0.24991192  0.09443269    -0.19700
H570        H  0.98576825  0.28512903  0.15019754     0.15900
F571        F  0.94767109  0.33416869  0.04476063    -0.23500
H572        H  0.96044349  0.29912326  0.98964562     0.17800
C573        C  0.91607266  0.40741975  0.53017286    -0.27500
C574        C  0.90534376  0.41342453  0.48806544     0.06100
C575        C  0.88315138  0.42704711  0.48694603     0.25700
C576        C  0.87179756  0.43436779  0.52736134    -0.12000
C577        C  0.88244583  0.42843143  0.56957382    -0.25900
C578        C  0.90482978  0.41500590  0.57076607     0.36500
C579        C  0.91677289  0.40519639  0.44503127     0.06100
F580        F  0.87198866  0.43250923  0.44668724    -0.19700
H581        H  0.85443745  0.44442130  0.52568990     0.15900
F582        F  0.91513661  0.40813567  0.61107301    -0.23400
H583        H  0.93306783  0.39676311  0.53153554     0.17700
C584        C  0.92279928  0.42278107  0.41141312     0.25700
C585        C  0.92953386  0.41500649  0.36797392    -0.12000
C586        C  0.93047684  0.38952025  0.35706607    -0.26000
C587        C  0.92621506  0.37185349  0.39180109     0.36600
C588        C  0.91940378  0.37973319  0.43554370    -0.27600
F589        F  0.92130139  0.44753209  0.42023190    -0.19700
H590        H  0.93324312  0.42909473  0.34231920     0.15900
F591        F  0.92706261  0.34709410  0.38291842    -0.23500
H592        H  0.91488532  0.36594651  0.46132257     0.17800
C593        C  0.88773658  0.45610229  0.91675147    -0.27500
C594        C  0.87102769  0.44312638  0.94485045     0.06100
C595        C  0.84615810  0.44028393  0.93064321     0.25700
C596        C  0.83883239  0.44834463  0.88729971    -0.12000
C597        C  0.85620610  0.45927693  0.85763297    -0.25900
C598        C  0.88045794  0.46415832  0.87358032     0.36500
C599        C  0.88029088  0.43099540  0.98691282     0.06100
F600        F  0.82918523  0.42895463  0.95804682    -0.19700
H601        H  0.82002006  0.44462001  0.87594510     0.15900
F602        F  0.89749657  0.47575243  0.84662469    -0.23400
H603        H  0.90686331  0.45881199  0.92723123     0.17700
C604        C  0.87626017  0.40542628  0.99417560     0.25700
C605        C  0.88563507  0.39383745  0.03306858    -0.12000
C606        C  0.89931500  0.40736740  0.06572859    -0.26000
C607        C  0.90395861  0.43287896  0.05772039     0.36600
C608        C  0.89458939  0.44446568  0.01856391    -0.27600
F609        F  0.86368944  0.39146753  0.96315249    -0.19700
H610        H  0.88172261  0.37418100  0.03789282     0.15900
F611        F  0.91730493  0.44673512  0.08774909    -0.23500
H612        H  0.89826733  0.46412767  0.01316126     0.17800
C613        C  0.90800008  0.28412514  0.74078732    -0.27500
C614        C  0.88617837  0.29381305  0.75960531     0.06100
C615        C  0.87187909  0.27901580  0.78911474     0.25700
C616        C  0.87966577  0.25507414  0.80056386    -0.12000
C617        C  0.90189475  0.24536693  0.78283656    -0.25900
C618        C  0.91580076  0.26005419  0.75199337     0.36500
C619        C  0.87850205  0.31948993  0.74895240     0.06100
F620        F  0.85085673  0.28810182  0.80820075    -0.19700
H621        H  0.86854177  0.24440329  0.82450757     0.15900
F622        F  0.93698611  0.25134828  0.73293949    -0.23400
H623        H  0.91905547  0.29531551  0.71751253     0.17700
C624        C  0.89231264  0.33989033  0.76506456     0.25700
C625        C  0.88482190  0.36416884  0.75500566    -0.12000
C626        C  0.86351845  0.36854787  0.72833651    -0.26000
C627        C  0.84962014  0.34787962  0.71259302     0.36600
C628        C  0.85703891  0.32364782  0.72314484    -0.27600
F629        F  0.91287852  0.33629046  0.79097476    -0.19700
H630        H  0.89594134  0.37954161  0.76769691     0.15900
F631        F  0.82895434  0.35092141  0.68672268    -0.23500
H632        H  0.84616899  0.30802719  0.71068456     0.17800
C633        C  0.72480347  0.39107883  0.76409383    -0.27500
C634        C  0.70595300  0.40806910  0.77470760     0.06100
C635        C  0.71168383  0.43369574  0.77391222     0.25700
C636        C  0.73539618  0.44205477  0.76112113    -0.12000
C637        C  0.75403329  0.42514301  0.74875917    -0.25900
C638        C  0.74854106  0.39942773  0.75109993     0.36500
C639        C  0.68036059  0.39905318  0.78597163     0.06100
F640        F  0.69438637  0.45072986  0.78587179    -0.19700
H641        H  0.73897920  0.46191608  0.75995772     0.15900
F642        F  0.76603879  0.38227909  0.74075013    -0.23400
H643        H  0.72096148  0.37125727  0.76484089     0.17700
C644        C  0.65948807  0.40899130  0.76371592     0.25700
C645        C  0.63547905  0.40114397  0.77552243    -0.12000
C646        C  0.63153552  0.38298136  0.80944596    -0.26000
C647        C  0.65250089  0.37248744  0.83089149     0.36600
C648        C  0.67658835  0.38044530  0.81910475    -0.27600
F649        F  0.66228401  0.42606414  0.72989959    -0.19700
H650        H  0.61986705  0.40938716  0.75791877     0.15900
F651        F  0.64981124  0.35519337  0.86436034    -0.23500
H652        H  0.69233837  0.37246126  0.83669291     0.17800
C653        C  0.75668778  0.42832901  0.24566984    -0.27500
C654        C  0.76646532  0.40627582  0.26363824     0.06100
C655        C  0.75181116  0.39147303  0.29258597     0.25700
C656        C  0.72784425  0.39898076  0.30418909    -0.12000
C657        C  0.71806079  0.42143095  0.28719557    -0.25900
C658        C  0.73266694  0.43584842  0.25701505     0.36500
C659        C  0.79226875  0.39930201  0.25313288     0.06100
F660        F  0.76107502  0.37030272  0.31112299    -0.19700
H661        H  0.71724572  0.38751719  0.32763717     0.15900
F662        F  0.72401892  0.45739389  0.23894753    -0.23400
H663        H  0.76779650  0.43982346  0.22305362     0.17700
C664        C  0.79740892  0.37782677  0.22786450     0.25700
C665        C  0.82191273  0.37207626  0.21650099    -0.12000
C666        C  0.84174143  0.38756375  0.23037545    -0.26000
C667        C  0.83644831  0.40865544  0.25717651     0.36600
C668        C  0.81190535  0.41449751  0.26796750    -0.27600
F669        F  0.77866083  0.36288893  0.21296429    -0.19700
H670        H  0.82527796  0.35567728  0.19602826     0.15900
F671        F  0.85485811  0.42376961  0.27286350    -0.23500
H672        H  0.80816300  0.43097480  0.28803845     0.17800
C673        C  0.72729255  0.51259671  0.45512737    -0.27500
C674        C  0.72558916  0.50329835  0.49984798     0.06100
C675        C  0.70491509  0.48866610  0.51215246     0.25700
C676        C  0.68761989  0.48148384  0.47927397    -0.12000
C677        C  0.69038415  0.48898805  0.43369757    -0.25900
C678        C  0.70958302  0.50577255  0.42224507     0.36500
C679        C  0.74721744  0.50411054  0.53097125     0.06100
F680        F  0.70289005  0.47907547  0.55485354    -0.19700
H681        H  0.67287531  0.46863199  0.48887112     0.15900
F682        F  0.71266407  0.51350388  0.37853477    -0.23400
H683        H  0.74319361  0.52382234  0.44504550     0.17700
C684        C  0.76848621  0.49044857  0.51967079     0.25700
C685        C  0.78567047  0.48418259  0.55337931    -0.12000
C686        C  0.78219312  0.49177241  0.59869209    -0.26000
C687        C  0.76232158  0.50762729  0.60903406     0.36600
C688        C  0.74479502  0.51351689  0.57538391    -0.27600
F689        F  0.77120940  0.48080591  0.47724392    -0.19700
H690        H  0.80088434  0.47197938  0.54469133     0.15900
F691        F  0.75835647  0.51514928  0.65251710    -0.23500
H692        H  0.72839969  0.52390022  0.58472872     0.17800
C693        C  0.56248010  0.27858404  0.29313119    -0.27500
C694        C  0.58710301  0.28650231  0.28656622     0.06100
C695        C  0.60436812  0.26987624  0.26804104     0.25700
C696        C  0.59677669  0.24611792  0.25444264    -0.12000
C697        C  0.57184895  0.23845991  0.25906253    -0.25900
C698        C  0.55482999  0.25482728  0.27960273     0.36500
C699        C  0.59437544  0.31244891  0.29710662     0.06100
F700        F  0.62828941  0.27703691  0.26089546    -0.19700
H701        H  0.61034933  0.23397436  0.23903310     0.15900
F702        F  0.53058438  0.24838763  0.28512550    -0.23400
H703        H  0.54901510  0.29104817  0.30801019     0.17700
C704        C  0.58108971  0.33246894  0.27851021     0.25700
C705        C  0.58832187  0.35695468  0.28783227    -0.12000
C706        C  0.60888381  0.36200554  0.31603700    -0.26000
C707        C  0.62211294  0.34180107  0.33475843     0.36600
C708        C  0.61489622  0.31733077  0.32518131    -0.27600
F709        F  0.56140570  0.32834338  0.25051495    -0.19700
H710        H  0.57772880  0.37196897  0.27292455     0.15900
F711        F  0.64181122  0.34551427  0.36288556    -0.23500
H712        H  0.62520234  0.30212108  0.34013581     0.17800
C713        C  0.58192708  0.44813679  0.12127252    -0.27500
C714        C  0.59871410  0.43596617  0.09269178     0.06100
C715        C  0.62356934  0.43328526  0.10657182     0.25700
C716        C  0.63091372  0.44080594  0.15012191    -0.12000
C717        C  0.61351911  0.45095033  0.18027468    -0.25900
C718        C  0.58920653  0.45558359  0.16479132     0.36500
C719        C  0.58954313  0.42393893  0.05077113     0.06100
F720        F  0.64044313  0.42250582  0.07864536    -0.19700
H721        H  0.64978001  0.43734912  0.16115884     0.15900
F722        F  0.57223346  0.46654377  0.19229020    -0.23400
H723        H  0.56280206  0.45063701  0.11082980     0.17700
C724        C  0.59246378  0.39821732  0.04490970     0.25700
C725        C  0.58355240  0.38662612  0.00575876    -0.12000
C726        C  0.57160919  0.40041608  0.97142526    -0.26000
C727        C  0.56792571  0.42612580  0.97811225     0.36600
C728        C  0.57674377  0.43769542  0.01767677    -0.27600
F729        F  0.60370875  0.38419788  0.07737475    -0.19700
H730        H  0.58658649  0.36684235  0.00199702     0.15900
F731        F  0.55622607  0.44020546  0.94632206    -0.23500
H732        H  0.57396410  0.45747617  0.02218536     0.17800
C733        C  0.55565387  0.42214302  0.52122911    -0.27500
C734        C  0.56737772  0.40534542  0.55092051     0.06100
C735        C  0.59174616  0.39780689  0.54149224     0.25700
C736        C  0.60392876  0.40651314  0.50270076    -0.12000
C737        C  0.59211761  0.42283609  0.47220601    -0.25900
C738        C  0.56784528  0.43079114  0.48203083     0.36500
C739        C  0.55501486  0.39674634  0.59319367     0.06100
F740        F  0.60400008  0.38233316  0.57028128    -0.19700
H741        H  0.62254171  0.39991022  0.49601698     0.15900
F742        F  0.55596123  0.44693855  0.45401525    -0.23400
H743        H  0.53695957  0.42838848  0.52824411     0.17700
C744        C  0.54634595  0.41412927  0.62489631     0.25700
C745        C  0.53903202  0.40631498  0.66819864    -0.12000
C746        C  0.54017178  0.38104277  0.68072595    -0.26000
C747        C  0.54685731  0.36336601  0.64779975     0.36600
C748        C  0.55431895  0.37123826  0.60433496    -0.27600
F749        F  0.54681509  0.43887734  0.61541498    -0.19700
H750        H  0.53361937  0.42021795  0.69270020     0.15900
F751        F  0.54803403  0.33880375  0.65849703    -0.23500
H752        H  0.56061102  0.35758881  0.58009473     0.17800
C753        C  0.07921200  0.06571115  0.76001056    -0.27500
C754        C  0.05348992  0.06213830  0.75562309     0.06100
C755        C  0.04459979  0.04113857  0.73201882     0.25700
C756        C  0.06116858  0.02337333  0.71548122    -0.12000
C757        C  0.08694256  0.02604167  0.72243611    -0.25900
C758        C  0.09582590  0.04784824  0.74387166     0.36500
C759        C  0.03605080  0.08017937  0.77617671     0.06100
F760        F  0.01984840  0.03761719  0.72551311    -0.19700
H761        H  0.05364505  0.00689978  0.69917937     0.15900
F762        F  0.12049144  0.05154181  0.75092961    -0.23400
H763        H  0.08641813  0.08194157  0.77758266     0.17700
C764        C  0.01763570  0.07224395  0.80700847     0.25700
C765        C  0.00013856  0.08909047  0.82357000    -0.12000
C766        C  0.00051866  0.11419924  0.80962211    -0.26000
C767        C  0.01998723  0.12235488  0.78081312     0.36600
C768        C  0.03754636  0.10546942  0.76451511    -0.27600
F769        F  0.01633920  0.04809054  0.82059923    -0.19700
H770        H  0.98559049  0.08214564  0.84580827     0.15900
F771        F  0.02136939  0.14630194  0.76612795    -0.23500
H772        H  0.05177462  0.11197613  0.74115243     0.17800
C773        C  0.42690172  0.03893884  0.31492152    -0.27500
C774        C  0.41939273  0.05690657  0.28309423     0.06100
C775        C  0.39445745  0.05746573  0.26924817     0.25700
C776        C  0.37764685  0.03944913  0.28514790    -0.12000
C777        C  0.38538352  0.02046655  0.31509172    -0.25900
C778        C  0.41011134  0.02097961  0.33110528     0.36500
C779        C  0.43801150  0.07396758  0.26252483     0.06100
F780        F  0.38676237  0.07440061  0.23797910    -0.19700
H781        H  0.35887646  0.03958582  0.27188153     0.15900
F782        F  0.41852641  0.00341823  0.36052981    -0.23400
H783        H  0.44603178  0.03843026  0.32632025     0.17700
C784        C  0.43598360  0.09987958  0.26694420     0.25700
C785        C  0.45457719  0.11559318  0.24958027    -0.12000
C786        C  0.47552661  0.10579675  0.22731107    -0.26000
C787        C  0.47676395  0.07978605  0.22094690     0.36600
C788        C  0.45827223  0.06413945  0.23874872    -0.27600
F789        F  0.41669712  0.10990467  0.29013856    -0.19700
H790        H  0.45305568  0.13543026  0.25540599     0.15900
F791        F  0.49637787  0.06923082  0.19953380    -0.23500
H792        H  0.45994526  0.04417957  0.23455705     0.17800
C793        C  0.26518169  0.00852302  0.48523966    -0.27500
C794        C  0.24304365  0.99512970  0.49347660     0.06100
C795        C  0.23716360  0.97466337  0.46559343     0.25700
C796        C  0.25335483  0.96731449  0.43134594    -0.12000
C797        C  0.27576762  0.98012500  0.42374817    -0.25900
C798        C  0.28139765  0.00122724  0.45022619     0.36500
C799        C  0.22701520  0.00039308  0.53340144     0.06100
F800        F  0.21642316  0.96072657  0.47323166    -0.19700
H801        H  0.24860959  0.95104929  0.41126486     0.15900
F802        F  0.30307643  0.01383248  0.44402057    -0.23400
H803        H  0.27011898  0.02424263  0.50652576     0.17700
C804        C  0.23669002  0.99867577  0.57785129     0.25700
C805        C  0.22062112  0.99559800  0.61498761    -0.12000
C806        C  0.19484752  0.99429815  0.60822667    -0.26000
C807        C  0.18513055  0.99847883  0.56456777     0.36600
C808        C  0.20113475  0.00182737  0.52752826    -0.27600
F809        F  0.26154593  0.99696123  0.58483847    -0.19700
H810        H  0.22836484  0.99185594  0.64836535     0.15900
F811        F  0.16029888  0.99667002  0.55704854    -0.23500
H812        H  0.19331398  0.00324803  0.49361369     0.17800
C813        C  0.95642306  0.57086933  0.79998419    -0.27500
C814        C  0.93704216  0.58088320  0.77399149     0.06100
C815        C  0.93594757  0.60673726  0.76763253     0.25700
C816        C  0.95493687  0.62214361  0.78451258    -0.12000
C817        C  0.97520408  0.61206784  0.80859458    -0.25900
C818        C  0.97518266  0.58623084  0.81763369     0.36500
C819        C  0.91827827  0.56403970  0.75343210     0.06100
F820        F  0.91715629  0.61692699  0.74322483    -0.19700
H821        H  0.95425421  0.64187281  0.77702704     0.15900
F822        F  0.99378763  0.57551931  0.84179126    -0.23400
H823        H  0.95720913  0.55098363  0.80600406     0.17700
C824        C  0.92504828  0.54714040  0.71925036     0.25700
C825        C  0.90809279  0.52905355  0.70416722    -0.12000
C826        C  0.88409597  0.52736243  0.72308628    -0.26000
C827        C  0.87695556  0.54544674  0.75536996     0.36600
C828        C  0.89393792  0.56357303  0.77019508    -0.27600
F829        F  0.94832413  0.54768530  0.70147075    -0.19700
H830        H  0.91418836  0.51561746  0.67914719     0.15900
F831        F  0.85417053  0.54469486  0.77510457    -0.23500
H832        H  0.88844594  0.57653403  0.79652182     0.17800
C833        C  0.11571461  0.82385029  0.71915625    -0.27500
C834        C  0.09609169  0.81952127  0.74977759     0.06100
C835        C  0.08452965  0.84008254  0.77022381     0.25700
C836        C  0.09182136  0.86433097  0.75878143    -0.12000
C837        C  0.11105025  0.86875980  0.72724391    -0.25900
C838        C  0.12323310  0.84811735  0.70804862     0.36500
C839        C  0.08810435  0.79359209  0.76064791     0.06100
F840        F  0.06652708  0.83680814  0.80209761    -0.19700
H841        H  0.08231247  0.87969683  0.77481471     0.15900
F842        F  0.14218652  0.85121678  0.67804063    -0.23400
H843        H  0.12504113  0.80835383  0.70316965     0.17700
C844        C  0.06280384  0.78673437  0.76083603     0.35300
C845        C  0.05556066  0.76258695  0.77311359    -0.12000
C846        C  0.07330405  0.74465630  0.78507895    -0.26000
C847        C  0.09868045  0.75116827  0.78270416     0.36600
C848        C  0.10590754  0.77539360  0.77076677    -0.27600
F849        F  0.04503756  0.80326410  0.74863275    -0.19700
H850        H  0.03589824  0.75808375  0.77417274     0.15900
F851        F  0.11655024  0.73417524  0.79188405    -0.23500
H852        H  0.12553506  0.78007668  0.77028710     0.17800
C853        C  0.89341865  0.95592988  0.27817033    -0.27500
C854        C  0.91925173  0.95811074  0.28349330     0.06100
C855        C  0.92897254  0.97842834  0.30790190     0.25700
C856        C  0.91335799  0.99724908  0.32333493    -0.12000
C857        C  0.88765888  0.99639705  0.31447889    -0.25900
C858        C  0.87767785  0.97487962  0.29348123     0.36500
C859        C  0.93634850  0.94052330  0.26073841     0.06100
F860        F  0.95379876  0.98056435  0.31527633    -0.19700
H861        H  0.92170113  0.01321317  0.33990922     0.15900
F862        F  0.85296800  0.97277009  0.28500365    -0.23400
H863        H  0.88557313  0.94027245  0.25992070     0.17700
C864        C  0.93584267  0.91489610  0.27035259     0.25700
C865        C  0.95435619  0.89933390  0.25284033    -0.12000
C866        C  0.97361195  0.90912254  0.22542898    -0.26000
C867        C  0.97280718  0.93446161  0.21304555     0.36600
C868        C  0.95440177  0.94991762  0.23063191    -0.27600
F869        F  0.91853058  0.90523444  0.29912141    -0.19700
H870        H  0.95451029  0.88002556  0.26316637     0.15900
F871        F  0.99040675  0.94462819  0.18544130    -0.23500
H872        H  0.95470576  0.96946909  0.22192762     0.17800
C873        C  0.21241492  0.92814257  0.25795354    -0.27500
C874        C  0.20872132  0.90333688  0.24418716     0.06100
C875        C  0.22918282  0.88714014  0.24416168     0.25700
C876        C  0.25252859  0.89553992  0.25890635    -0.12000
C877        C  0.25610387  0.92034491  0.27278665    -0.25900
C878        C  0.23578955  0.93666716  0.27168464     0.36500
C879        C  0.18348830  0.89507210  0.22960216     0.06100
F880        F  0.22685328  0.86341564  0.22886954    -0.19700
H881        H  0.26791016  0.88264930  0.25915686     0.15900
F882        F  0.23819162  0.96065459  0.28558663    -0.23400
H883        H  0.19699391  0.94097338  0.25878169     0.17700
C884        C  0.17271462  0.87264175  0.24541416     0.25700
C885        C  0.14826572  0.86633542  0.23346690    -0.12000
C886        C  0.13394155  0.88255855  0.20682378    -0.26000
C887        C  0.14476198  0.90473281  0.19058845     0.36600
C888        C  0.16930702  0.91072638  0.20149041    -0.27600
F889        F  0.18520540  0.85747168  0.27435517    -0.19700
H890        H  0.14016514  0.84924363  0.24662229     0.15900
F891        F  0.13165446  0.92055870  0.16381277    -0.23500
H892        H  0.17719014  0.92790528  0.18829785     0.17800
C893        C  0.00761936  0.72541908  0.01628524    -0.27500
C894        C  0.99337126  0.74644599  0.00542159     0.06100
C895        C  0.98447979  0.74900786  0.96043015     0.25700
C896        C  0.99182623  0.73227451  0.92633671    -0.12000
C897        C  0.00828205  0.71286719  0.93650751    -0.25900
C898        C  0.01504192  0.70882548  0.98226432     0.36500
C899        C  0.99237834  0.76753929  0.03846707     0.06100
F900        F  0.96993345  0.76856277  0.94888163    -0.19700
H901        H  0.98621687  0.73564367  0.89147263     0.15900
F902        F  0.03004621  0.68958191  0.99369324    -0.23400
H903        H  0.01474865  0.72290032  0.05043294     0.17700
C904        C  0.98728519  0.76374094  0.08514069     0.25700
C905        C  0.99315274  0.78229975  0.11726801    -0.12000
C906        C  0.00435482  0.80480336  0.10333458    -0.26000
C907        C  0.00689344  0.80948458  0.05628617     0.36600
C908        C  0.00099992  0.79107246  0.02441082    -0.27600
F909        F  0.97801882  0.74158721  0.09992428    -0.19700
H910        H  0.99089272  0.77822684  0.15315166     0.15900
F911        F  0.01692648  0.83125011  0.04115353    -0.23500
H912        H  0.00519743  0.79458799  0.98891968     0.17800
C913        C  0.05764810  0.88384158  0.43050415    -0.27500
C914        C  0.06542243  0.90871362  0.43615634     0.06100
C915        C  0.06534514  0.92484100  0.39862413     0.25700
C916        C  0.05837917  0.91608892  0.35590910    -0.12000
C917        C  0.05153769  0.89098208  0.34938308    -0.25900
C918        C  0.05078476  0.87493480  0.38731031     0.36500
C919        C  0.07559597  0.91736697  0.48011132     0.06100
F920        F  0.07239144  0.94903849  0.40316110    -0.19700
H921        H  0.05878219  0.92901718  0.32757183     0.15900
F922        F  0.04477375  0.85051406  0.38234379    -0.23400
H923        H  0.05788594  0.87113011  0.45914410     0.17700
C924        C  0.06141079  0.91632363  0.52015675     0.25700
C925        C  0.07195403  0.92346857  0.56174427    -0.12000
C926        C  0.09684939  0.93160195  0.56395451    -0.26000
C927        C  0.11061345  0.93368245  0.52329871     0.36600
C928        C  0.10002916  0.92658477  0.48188646    -0.27600
F929        F  0.03741977  0.90840420  0.51899758    -0.19700
H930        H  0.06088510  0.92184528  0.59236646     0.15900
F931        F  0.13439595  0.94228845  0.52346528    -0.23500
H932        H  0.11112100  0.92773817  0.45121507     0.17800
C933        C  0.07557155  0.94512090  0.01914316    -0.27500
C934        C  0.08764988  0.93221082  0.98429692     0.06100
C935        C  0.09012203  0.90630803  0.98723403     0.25700
C936        C  0.08118010  0.89350989  0.02522493    -0.12000
C937        C  0.06966627  0.90632529  0.06110204    -0.25900
C938        C  0.06674562  0.93235987  0.05753478     0.36500
C939        C  0.09660705  0.94527984  0.94342105     0.06100
F940        F  0.10101442  0.89338249  0.95302175    -0.19700
H941        H  0.08366019  0.87353755  0.02683165     0.15900
F942        F  0.05627468  0.94565225  0.09168967    -0.23400
H943        H  0.07336158  0.96511085  0.01687558     0.17700
C944        C  0.07949821  0.95385499  0.91122112     0.25700
C945        C  0.08765497  0.96116737  0.86819059    -0.12000
C946        C  0.11299849  0.96001243  0.85660948    -0.26000
C947        C  0.13036882  0.95359101  0.89041645     0.36600
C948        C  0.12210206  0.94601235  0.93347955    -0.27600
F949        F  0.05475219  0.95315733  0.92008230    -0.19700
H950        H  0.07391091  0.96647899  0.84309328     0.15900
F951        F  0.15502721  0.95276289  0.88097463    -0.23500
H952        H  0.13545217  0.93949493  0.95833146     0.17800
C953        C  0.08222071  0.46046092  0.27395749    -0.27500
C954        C  0.05647698  0.46358991  0.27851832     0.06100
C955        C  0.04768398  0.48387480  0.30387631     0.25700
C956        C  0.06422000  0.50168482  0.32114341    -0.12000
C957        C  0.08992662  0.49976704  0.31346771    -0.25900
C958        C  0.09885382  0.47835169  0.29113439     0.36500
C959        C  0.03872929  0.44604744  0.25640465     0.06100
F960        F  0.02297684  0.48674825  0.31120707    -0.19700
H961        H  0.05666658  0.51772454  0.33844841     0.15900
F962        F  0.12354465  0.47514838  0.28412684    -0.23400
H963        H  0.08941347  0.44467142  0.25538841     0.17700
C964        C  0.01976157  0.45495457  0.22783671     0.25700
C965        C  0.00120246  0.43883576  0.21176889    -0.12000
C966        C  0.00115025  0.41342992  0.22363023    -0.26000
C967        C  0.02137960  0.40422129  0.24925717     0.36600
C968        C  0.03992250  0.42042952  0.26533292    -0.27600
F969        F  0.01884478  0.47942821  0.21634206    -0.19700
H970        H  0.98619942  0.44656903  0.19177528     0.15900
F971        F  0.02264440  0.37982685  0.26112798    -0.23500
H972        H  0.05459154  0.41312573  0.28668768     0.17800
C973        C  0.05086806  0.60978996  0.61767068    -0.27500
C974        C  0.06395073  0.62689023  0.59055532     0.06100
C975        C  0.06697811  0.65154514  0.60586273     0.25700
C976        C  0.05832357  0.65844802  0.64902235    -0.12000
C977        C  0.04684275  0.64076550  0.67753833    -0.25900
C978        C  0.04251714  0.61653710  0.66085653     0.36500
C979        C  0.07587419  0.61817563  0.54816619     0.06100
F980        F  0.07891095  0.66869173  0.57960794    -0.19700
H981        H  0.06187370  0.67717318  0.66113848     0.15900
F982        F  0.03098200  0.59906130  0.68699898    -0.23400
H983        H  0.04821736  0.59077740  0.60629688     0.17700
C984        C  0.10172507  0.62013652  0.54269664     0.25700
C985        C  0.11308544  0.61093982  0.50347836    -0.12000
C986        C  0.09891264  0.59965298  0.46878853    -0.26000
C987        C  0.07300016  0.59723446  0.47489993     0.36600
C988        C  0.06170388  0.60631053  0.51436717    -0.27600
F989        F  0.11606845  0.63052781  0.57573393    -0.19700
H990        H  0.13299604  0.61315553  0.49995086     0.15900
F991        F  0.05846200  0.58632488  0.44272379    -0.23500
H992        H  0.04179630  0.60429546  0.51841225     0.17800
C993        C  0.07795557  0.57952126  0.01491923    -0.27500
C994        C  0.09262179  0.59261165  0.04651353     0.06100
C995        C  0.09832584  0.61776652  0.03850502     0.25700
C996        C  0.08967802  0.62954588  0.99948180    -0.12000
C997        C  0.07526355  0.61655618  0.96725506    -0.25900
C998        C  0.06939292  0.59131554  0.97537363     0.36500
C999        C  0.10095085  0.58078701  0.08920674     0.06100
F1000       F  0.11188329  0.63117330  0.06895863    -0.19700
H1001       H  0.09474761  0.64889951  0.99422853     0.15900
F1002       F  0.05545614  0.57804705  0.94534281    -0.23400
H1003       H  0.07329480  0.56011815  0.02078163     0.17700
C1004       C  0.08353292  0.57055215  0.11960754     0.25700
C1005       C  0.09077988  0.56405547  0.16365302    -0.12000
C1006       C  0.11548550  0.56756527  0.17795742    -0.26000
C1007       C  0.13326597  0.57616980  0.14643208     0.36600
C1008       C  0.12597955  0.58266116  0.10236821    -0.27600
F1009       F  0.05918766  0.56864330  0.10796245    -0.19700
H1010       H  0.07681053  0.55724058  0.18721174     0.15900
F1011       F  0.15723268  0.58015672  0.15905436    -0.23500
H1012       H  0.13966060  0.59037808  0.07915098     0.17800
C1013       C  0.11714711  0.70274216  0.31258783    -0.27500
C1014       C  0.09374481  0.70717395  0.29341506     0.06100
C1015       C  0.07831172  0.68687514  0.28223688     0.25700
C1016       C  0.08623369  0.66254453  0.29037289    -0.12000
C1017       C  0.10963255  0.65800885  0.30995849    -0.25900
C1018       C  0.12505441  0.67847985  0.32100909     0.36500
C1019       C  0.08633133  0.73291453  0.28233305     0.06100
F1020       F  0.05588724  0.69054175  0.26223431    -0.19700
H1021       H  0.07393219  0.64725698  0.28156852     0.15900
F1022       F  0.14788859  0.67519385  0.33962143    -0.23400
H1023       H  0.12934699  0.71817791  0.32107336     0.17700
C1024       C  0.06363629  0.74267135  0.29749397     0.25700
C1025       C  0.05619332  0.76637829  0.28342349    -0.12000
C1026       C  0.07121786  0.78060024  0.25391727    -0.26000
C1027       C  0.09452812  0.77125725  0.24083902     0.36600
C1028       C  0.10193637  0.74766350  0.25501488    -0.27600
F1029       F  0.04865707  0.72922899  0.32563349    -0.19700
H1030       H  0.03828180  0.77324087  0.29433631     0.15900
F1031       F  0.11010150  0.78478723  0.21392952    -0.23500
H1032       H  0.11963597  0.74055499  0.24345445     0.17800
C1033       C  0.45161541  0.44753111  0.82123196    -0.27500
C1034       C  0.43395706  0.44017838  0.78853416     0.06100
C1035       C  0.43408504  0.41548727  0.77283393     0.25700
C1036       C  0.45256141  0.39901142  0.78738949    -0.12000
C1037       C  0.47138511  0.40686764  0.81767321    -0.25900
C1038       C  0.47007009  0.43108992  0.83585540     0.36500
C1039       C  0.41723649  0.45905740  0.76797119     0.06100
F1040       F  0.41758689  0.40783460  0.74070181    -0.19700
H1041       H  0.45303653  0.38064281  0.77253996     0.15900
F1042       F  0.48725420  0.43937499  0.86621407    -0.23400
H1043       H  0.45163165  0.46630482  0.83421367     0.17700
C1044       C  0.39129982  0.45577544  0.76680717     0.25700
C1045       C  0.37607667  0.47434341  0.74825892    -0.12000
C1046       C  0.38643218  0.49642749  0.73012989    -0.26000
C1047       C  0.41248582  0.49931551  0.73054722     0.36600
C1048       C  0.42758351  0.48087326  0.74932873    -0.27600
F1049       F  0.38060955  0.43515886  0.78537631    -0.19700
H1050       H  0.35615727  0.47172728  0.74921271     0.15900
F1051       F  0.42346248  0.52055141  0.71514189    -0.23500
H1052       H  0.44748103  0.48375107  0.74972609     0.17800
C1053       C  0.21267046  0.58496913  0.77175862    -0.27500
C1054       C  0.20716450  0.61047345  0.77048895     0.06100
C1055       C  0.22562036  0.62740656  0.75622516     0.25700
C1056       C  0.24895594  0.61886402  0.74275823    -0.12000
C1057       C  0.25441715  0.59329005  0.74329123    -0.25900
C1058       C  0.23595540  0.57637383  0.75816538     0.36500
C1059       C  0.18192534  0.61915161  0.78258143     0.06100
F1060       F  0.22078543  0.65213199  0.75359906    -0.19700
H1061       H  0.26269188  0.63233255  0.73132075     0.15900
F1062       F  0.23999244  0.55145555  0.75818039    -0.23400
H1063       H  0.19877122  0.57160377  0.78293710     0.17700
C1064       C  0.16083535  0.60804682  0.76276914     0.25700
C1065       C  0.13710428  0.61606361  0.77452302    -0.12000
C1066       C  0.13374682  0.63534911  0.80625819    -0.26000
C1067       C  0.15494024  0.64675747  0.82558869     0.36600
C1068       C  0.17874282  0.63863467  0.81383562    -0.27600
F1069       F  0.16315783  0.58967061  0.73141047    -0.19700
H1070       H  0.12126603  0.60698627  0.75870269     0.15900
F1071       F  0.15278018  0.66530219  0.85663600    -0.23500
H1072       H  0.19475881  0.64732522  0.82978244     0.17800
C1073       C  0.24071070  0.54190642  0.46071028    -0.27500
C1074       C  0.23546473  0.52055167  0.48661998     0.06100
C1075       C  0.21358848  0.50687837  0.47760874     0.25700
C1076       C  0.19690169  0.51512895  0.44404860    -0.12000
C1077       C  0.20169808  0.53734732  0.42015953    -0.25900
C1078       C  0.22410622  0.55024914  0.42794405     0.36500
C1079       C  0.25157351  0.51538592  0.52637267     0.06100
F1080       F  0.20813603  0.48602991  0.50192672    -0.19700
H1081       H  0.17977171  0.50490066  0.43831056     0.15900
F1082       F  0.22973011  0.57139340  0.40450755    -0.23400
H1083       H  0.25722504  0.55295849  0.46745072     0.17700
C1084       C  0.27757126  0.51571053  0.52123234     0.25700
C1085       C  0.29287379  0.52043900  0.55873318    -0.12000
C1086       C  0.28246848  0.52441901  0.60180165    -0.26000
C1087       C  0.25677006  0.52132187  0.60794246     0.36600
C1088       C  0.24140690  0.51671538  0.57036563    -0.27600
F1089       F  0.28794199  0.51411195  0.47919038    -0.19700
H1090       H  0.31262161  0.52313087  0.55345437     0.15900
F1091       F  0.24629431  0.52572400  0.64919449    -0.23500
H1092       H  0.22145937  0.51689519  0.57501497     0.17800
C1093       C  0.54236436  0.60089970  0.25273649    -0.27500
C1094       C  0.53974382  0.57505867  0.24751579     0.06100
C1095       C  0.51928525  0.56569175  0.22299466     0.25700
C1096       C  0.50074293  0.58169746  0.20762179    -0.12000
C1097       C  0.50210376  0.60741873  0.21639907    -0.25900
C1098       C  0.52378229  0.61701216  0.23730549     0.36500
C1099       C  0.55697750  0.55770743  0.27073496     0.06100
F1100       F  0.51676477  0.54087280  0.21538776    -0.19700
H1101       H  0.48459297  0.57364093  0.19107176     0.15900
F1102       F  0.52650721  0.64176976  0.24514637    -0.23400
H1103       H  0.55814731  0.60852928  0.27105591     0.17700
C1104       C  0.58281044  0.55913112  0.26435013     0.25700
C1105       C  0.59825307  0.54092219  0.28326801    -0.12000
C1106       C  0.58824219  0.52105430  0.30905892    -0.26000
C1107       C  0.56252604  0.52088489  0.31816101     0.36600
C1108       C  0.54719433  0.53897756  0.29906856    -0.27600
F1109       F  0.59295132  0.57716753  0.23758748    -0.19700
H1110       H  0.61792525  0.54169675  0.27565457     0.15900
F1111       F  0.55181350  0.50249093  0.34332307    -0.23500
H1112       H  0.52738955  0.53797040  0.30546948     0.17800
C1113       C  0.35062485  0.58188728  0.92741107    -0.27500
C1114       C  0.37521001  0.57664851  0.93992786     0.06100
C1115       C  0.39073712  0.56404562  0.90970830     0.25700
C1116       C  0.38215927  0.55798319  0.86639267    -0.12000
C1117       C  0.35803974  0.56448981  0.85261907    -0.25900
C1118       C  0.34194029  0.57571848  0.88396293     0.36500
C1119       C  0.38577237  0.58790469  0.98107020     0.06100
F1120       F  0.41474728  0.55940183  0.92081015    -0.19700
H1121       H  0.39482026  0.54920553  0.84273451     0.15900
F1122       F  0.31869470  0.58258866  0.87146026    -0.23400
H1123       H  0.33863113  0.59194355  0.95051095     0.17700
C1124       C  0.39080848  0.61349209  0.98135268     0.25700
C1125       C  0.40049995  0.62468396  0.02017791    -0.12000
C1126       C  0.40507678  0.61063423  0.05976232    -0.26000
C1127       C  0.40080919  0.58464932  0.05876881     0.36600
C1128       C  0.39134762  0.57340959  0.01938015    -0.27600
F1129       F  0.38609410  0.62768917  0.94403556    -0.19700
H1130       H  0.40365676  0.64464400  0.01956327     0.15900
F1131       F  0.40481311  0.57024254  0.09608249    -0.23500
H1132       H  0.38778195  0.55350767  0.01907954     0.17800
C1133       C  0.42871787  0.60095528  0.40891353    -0.27500
C1134       C  0.41542084  0.61687878  0.43736370     0.06100
C1135       C  0.41131871  0.64161092  0.42371404     0.25700
C1136       C  0.41946080  0.64992810  0.38092271    -0.12000
C1137       C  0.43132731  0.63348260  0.35105872    -0.25900
C1138       C  0.43653705  0.60908217  0.36599994     0.36500
C1139       C  0.40392069  0.60694337  0.47922161     0.06100
F1140       F  0.39849982  0.65731249  0.45101287    -0.19700
H1141       H  0.41508676  0.66867879  0.37001894     0.15900
F1142       F  0.44838012  0.59277350  0.33835431    -0.23400
H1143       H  0.43202583  0.58186301  0.41912831     0.17700
C1144       C  0.37853620  0.60094472  0.47967768     0.25700
C1145       C  0.36725879  0.59257668  0.51975497    -0.12000
C1146       C  0.38106140  0.59012393  0.56024885    -0.26000
C1147       C  0.40684409  0.59521356  0.55904477     0.36600
C1148       C  0.41810138  0.60347324  0.51869403    -0.27600
F1149       F  0.36460534  0.60354191  0.44140814    -0.19700
H1150       H  0.34746895  0.58866885  0.51929947     0.15900
F1151       F  0.42103063  0.59331471  0.59712302    -0.23500
H1152       H  0.43780807  0.60782933  0.51852619     0.17800
C1153       C  0.29937619  0.64533239  0.21360949    -0.27500
C1154       C  0.29296466  0.62227414  0.23325208     0.06100
C1155       C  0.31198413  0.60531020  0.24350089     0.25700
C1156       C  0.33670196  0.61116543  0.23377922    -0.12000
C1157       C  0.34320960  0.63409975  0.21382747    -0.25900
C1158       C  0.32422709  0.65129944  0.20411367     0.36500
C1159       C  0.26664286  0.61586920  0.24367490     0.06100
F1160       F  0.30679521  0.58316536  0.26388713    -0.19700
H1161       H  0.35076960  0.59753271  0.24170282     0.15900
F1162       F  0.32957547  0.67394300  0.18578903    -0.23400
H1163       H  0.28511692  0.65866106  0.20517742     0.17700
C1164       C  0.25117750  0.63252838  0.26709331     0.25700
C1165       C  0.22741113  0.62501597  0.28111735    -0.12000
C1166       C  0.21863298  0.60072510  0.27243795    -0.26000
C1167       C  0.23373964  0.58452624  0.24703358     0.36600
C1168       C  0.25728928  0.59217933  0.23254100    -0.27600
F1169       F  0.25949024  0.65556330  0.27877822    -0.19700
H1170       H  0.21629116  0.63795915  0.30045226     0.15900
F1171       F  0.22620713  0.56097203  0.23719581    -0.23500
H1172       H  0.26854554  0.57924441  0.21345158     0.17800
C1173       C  0.41116474  0.77943815  0.27683279    -0.27500
C1174       C  0.38846090  0.78851619  0.26031637     0.06100
C1175       C  0.37387242  0.77316254  0.23209953     0.25700
C1176       C  0.38178585  0.74917419  0.22115946    -0.12000
C1177       C  0.40457172  0.73998895  0.23755777    -0.25900
C1178       C  0.41923038  0.75551224  0.26560480     0.36500
C1179       C  0.38044550  0.81409893  0.27225732     0.06100
F1180       F  0.35240952  0.78165157  0.21362186    -0.19700
H1181       H  0.37020929  0.73799116  0.19892686     0.15900
F1182       F  0.44158697  0.74789755  0.28158546    -0.23400
H1183       H  0.42272281  0.79095394  0.29855238     0.17700
C1184       C  0.35665590  0.81855544  0.29012421     0.25700
C1185       C  0.34978807  0.84261498  0.30287972    -0.12000
C1186       C  0.36642397  0.86279548  0.29813865    -0.26000
C1187       C  0.39016225  0.85831562  0.27967807     0.36600
C1188       C  0.39702017  0.83421936  0.26707504    -0.27600
F1189       F  0.34032265  0.79952936  0.29685593    -0.19700
H1190       H  0.33142365  0.84537086  0.31692244     0.15900
F1191       F  0.40704704  0.87701759  0.27469917    -0.23500
H1192       H  0.41540736  0.83123840  0.25326468     0.17800
C1193       C  0.54142815  0.91207146  0.77906519    -0.27500
C1194       C  0.53885526  0.93806057  0.77985064     0.06100
C1195       C  0.51747463  0.94824775  0.79971957     0.25700
C1196       C  0.49841549  0.93275802  0.81580347    -0.12000
C1197       C  0.49999908  0.90669626  0.81203269    -0.25900
C1198       C  0.52218338  0.89646417  0.79480060     0.36500
C1199       C  0.55762401  0.95470783  0.75808463     0.06100
F1200       F  0.51472984  0.97330625  0.80250665    -0.19700
H1201       H  0.48175712  0.94135310  0.82895190     0.15900
F1202       F  0.52496467  0.87144473  0.79151493    -0.23400
H1203       H  0.55789241  0.90384696  0.76436872     0.17700
C1204       C  0.58251042  0.95516406  0.77254714     0.25700
C1205       C  0.59886658  0.97363312  0.75630068    -0.12000
C1206       C  0.59072732  0.99190621  0.72522107    -0.26000
C1207       C  0.56639570  0.98981711  0.70764979     0.36600
C1208       C  0.55008626  0.97154167  0.72422765    -0.27600
F1209       F  0.59050109  0.93896501  0.80484214    -0.19700
H1210       H  0.61742972  0.97459303  0.77047195     0.15900
F1211       F  0.55782978  0.00621429  0.67617900    -0.23500
H1212       H  0.53114307  0.97107303  0.71172466     0.17800
C1213       C  0.36502670  0.74754815  0.75928742    -0.27500
C1214       C  0.38253670  0.72928834  0.74845452     0.06100
C1215       C  0.40789512  0.73556667  0.74871653     0.25700
C1216       C  0.41567777  0.75939769  0.76175731    -0.12000
C1217       C  0.39833228  0.77738646  0.77524562    -0.25900
C1218       C  0.37278500  0.77138931  0.77278460     0.36500
C1219       C  0.37451967  0.70345491  0.73844090     0.06100
F1220       F  0.42515977  0.71846478  0.73690521    -0.19700
H1221       H  0.43540414  0.76343688  0.76298013     0.15900
F1222       F  0.35529906  0.78839853  0.78395497    -0.23400
H1223       H  0.34538657  0.74307997  0.75867010     0.17700
C1224       C  0.38185710  0.68378607  0.76695579     0.25700
C1225       C  0.37554141  0.65921604  0.75605392    -0.12000
C1226       C  0.36167196  0.65373989  0.71666830    -0.26000
C1227       C  0.35393248  0.67360911  0.68859726     0.36600
C1228       C  0.36024018  0.69820211  0.69966989    -0.27600
F1229       F  0.39503465  0.68842898  0.80550612    -0.19700
H1230       H  0.38154997  0.64436813  0.77865447     0.15900
F1231       F  0.34107799  0.66926359  0.64958592    -0.23500
H1232       H  0.35450745  0.71322710  0.67717107     0.17800
C1233       C  0.49011045  0.75170821  0.07585274    -0.27500
C1234       C  0.48311943  0.74778836  0.03019767     0.06100
C1235       C  0.47368320  0.72433571  0.01753597     0.25700
C1236       C  0.46880437  0.70625894  0.05068729    -0.12000
C1237       C  0.47335299  0.71108410  0.09697033    -0.25900
C1238       C  0.48543367  0.73341563  0.10909758     0.36500
C1239       C  0.48036650  0.76908872  0.99823529     0.06100
F1240       F  0.46628126  0.71998234  0.97402774    -0.19700
H1241       H  0.45935804  0.68921718  0.04063224     0.15900
F1242       F  0.48990857  0.73878077  0.15353548    -0.23400
H1243       H  0.49738591  0.76969226  0.08631215     0.17700
C1244       C  0.46372251  0.78820539  0.00917971     0.25700
C1245       C  0.45565642  0.80471105  0.97557669    -0.12000
C1246       C  0.46423478  0.80282540  0.93052013    -0.26000
C1247       C  0.48264850  0.78521430  0.92041607     0.36600
C1248       C  0.49040506  0.76827659  0.95400211    -0.27600
F1249       F  0.45340161  0.78947555  0.05130815    -0.19700
H1250       H  0.44164813  0.81828657  0.98432841     0.15900
F1251       F  0.49151859  0.78295764  0.87735835    -0.23500
H1252       H  0.50322243  0.75364906  0.94486535     0.17800
C1253       C  0.24746143  0.89512426  0.77111100    -0.27500
C1254       C  0.26576820  0.91237220  0.78420438     0.06100
C1255       C  0.25983979  0.93782550  0.78530446     0.25700
C1256       C  0.23616227  0.94582323  0.77233884    -0.12000
C1257       C  0.21803214  0.92862799  0.75759022    -0.25900
C1258       C  0.22388517  0.90305759  0.75782435     0.36500
C1259       C  0.29127518  0.90371182  0.79433031     0.06100
F1260       F  0.27699871  0.95496891  0.79864730    -0.19700
H1261       H  0.23230386  0.96556453  0.77252693     0.15900
F1262       F  0.20706712  0.88562258  0.74431902    -0.23400
H1263       H  0.25169145  0.87547013  0.76973260     0.17700
C1264       C  0.29548319  0.88444782  0.82586180     0.25700
C1265       C  0.31963635  0.87612991  0.83423607    -0.12000
C1266       C  0.34007030  0.88686806  0.81142772    -0.26000
C1267       C  0.33569970  0.90584158  0.77916590     0.36600
C1268       C  0.31155954  0.91413741  0.77090398    -0.27600
F1269       F  0.27630749  0.87413453  0.84947055    -0.19700
H1270       H  0.32237925  0.86164278  0.85943003     0.15900
F1271       F  0.35466830  0.91625411  0.75514239    -0.23500
H1272       H  0.30864802  0.92857643  0.74567345     0.17800
C1273       C  0.40766372  0.87335969  0.60632827    -0.27500
C1274       C  0.40988857  0.89837854  0.59308176     0.06100
C1275       C  0.42119270  0.91561246  0.62238172     0.25700
C1276       C  0.42920317  0.90803857  0.66537615    -0.12000
C1277       C  0.42621791  0.88314971  0.67951221    -0.25900
C1278       C  0.41593271  0.86567496  0.64917878     0.36500
C1279       C  0.39842016  0.90674271  0.55039577     0.06100
F1280       F  0.42312285  0.93998806  0.61044562    -0.19700
H1281       H  0.43700897  0.92181614  0.68825359     0.15900
F1282       F  0.41223838  0.84164208  0.66204439    -0.23400
H1283       H  0.39881935  0.85997117  0.58393611     0.17700
C1284       C  0.41293303  0.91589884  0.51437984     0.25700
C1285       C  0.40162744  0.92297719  0.47357654    -0.12000
C1286       C  0.37566516  0.92114212  0.46827008    -0.26000
C1287       C  0.36117080  0.91275849  0.50537807     0.36600
C1288       C  0.37256799  0.90549571  0.54586751    -0.27600
F1289       F  0.43804036  0.91718714  0.51820185    -0.19700
H1290       H  0.41330585  0.92933812  0.44579830     0.15900
F1291       F  0.33604823  0.91103740  0.50252334    -0.23500
H1292       H  0.36120192  0.89875850  0.57382027     0.17800
C1293       C  0.38294716  0.89760819  0.04688663    -0.27500
C1294       C  0.38629379  0.92334631  0.05173166     0.06100
C1295       C  0.39872159  0.93683249  0.01755595     0.25700
C1296       C  0.40655169  0.92481596  0.97795309    -0.12000
C1297       C  0.40227234  0.89913272  0.97203354    -0.25900
C1298       C  0.39086788  0.88551532  0.00762141     0.36500
C1299       C  0.37694243  0.93567263  0.09301855     0.06100
F1300       F  0.40234803  0.96176044  0.02164997    -0.19700
H1301       H  0.41527177  0.93579761  0.95137645     0.15900
F1302       F  0.38652840  0.86065749  0.00417965    -0.23400
H1303       H  0.37393488  0.88687622  0.07350386     0.17700
C1304       C  0.35198475  0.93275831  0.10624909     0.25700
C1305       C  0.34407141  0.94145751  0.14856594    -0.12000
C1306       C  0.36103150  0.95281694  0.17840620    -0.26000
C1307       C  0.38562800  0.95716694  0.16379060     0.36600
C1308       C  0.39343847  0.94867678  0.12133179    -0.27600
F1309       F  0.33552559  0.92067690  0.07891575    -0.19700
H1310       H  0.32509570  0.93785328  0.15915145     0.15900
F1311       F  0.40240789  0.96867763  0.19132369    -0.23500
H1312       H  0.41271582  0.95110818  0.11156042     0.17800
loop_ 
_geom_bond_atom_site_label_1 
_geom_bond_atom_site_label_2 
_geom_bond_distance 
_geom_bond_site_symmetry_2 
_ccdc_geom_bond_type 
Fe1          O17   2.064       .  S
Fe1           O7   2.059       .  S
Fe1          O14   2.063       .  S
Fe1           O6   2.059       .  S
Fe1          O12   1.966       .  S
Fe2           O5   2.073       .  S
Fe2           O9   2.048       .  S
Fe2          O13   2.071       .  S
Fe2          O18   2.057       .  S
Fe2          O12   1.963       .  S
Fe3          O21   2.081       .  S
Fe3           O8   2.077       .  S
Fe3          O15   2.084       .  S
Fe3           O4   2.069       .  S
Fe3          O12   1.975       .  S
O4           C11   1.274       .  A
O5           C19   1.276       .  A
O6           C11   1.271       .  A
O7           C10   1.267       .  A
O8           C20   1.268       .  A
O9           C22   1.266       .  A
C10          O15   1.270       .  A
C10        C1197   1.493       .  S
C11        C1277   1.471       .  S
O13          C16   1.271       .  A
O14          C16   1.269       .  A
C16        C1266   1.485       .  S
O17          C22   1.269       .  A
O18          C20   1.263       .  A
C19          O21   1.277       .  A
C19        C1246   1.482       .  S
C20        C1217   1.487       .  S
C22        C1297   1.481       .  S
Fe23         O39   2.062       .  S
Fe23         O29   2.057       .  S
Fe23         O36   2.063       .  S
Fe23         O28   2.053       .  S
Fe23         O34   1.969       .  S
Fe24         O27   2.057       .  S
Fe24         O31   2.043       .  S
Fe24         O35   2.071       .  S
Fe24         O40   2.049       .  S
Fe24         O34   1.960       .  S
Fe25         O43   2.091       .  S
Fe25         O30   2.078       .  S
Fe25         O37   2.086       .  S
Fe25         O26   2.085       .  S
Fe25         O34   1.976       .  S
O26          C33   1.273       .  A
O27          C41   1.271       .  A
O28          C33   1.266       .  A
O29          C32   1.270       .  A
O30          C42   1.270       .  A
O31          C44   1.264       .  A
C32          O37   1.273       .  A
C32        C1097   1.490       .  S
C33        C1137   1.477       .  S
O35          C38   1.271       .  A
O36          C38   1.272       .  A
C38        C1157   1.485       .  S
O39          C44   1.265       .  A
O40          C42   1.265       .  A
C41          O43   1.276       .  A
C41        C1237   1.479       .  S
C42        C1177   1.489       .  S
C44        C1126   1.480       .  S
Fe45         O61   2.066       .  S
Fe45         O51   2.059       .  S
Fe45         O58   2.073       .  S
Fe45         O50   2.061       .  S
Fe45         O56   1.954       .  S
Fe46         O49   2.056       .  S
Fe46         O53   2.076       .  S
Fe46         O57   2.056       .  S
Fe46         O62   2.073       .  S
Fe46         O56   1.952       .  S
Fe47         O65   2.076       .  S
Fe47         O52   2.069       .  S
Fe47         O59   2.065       .  S
Fe47         O48   2.083       .  S
Fe47         O56   1.967       .  S
O48          C55   1.271       .  A
O49          C63   1.265       .  A
O50          C55   1.269       .  A
O51          C54   1.271       .  A
O52          C64   1.273       .  A
O53          C66   1.272       .  A
C54          O59   1.272       .  A
C54        C1117   1.468       .  S
C55        C1046   1.489       .  S
O57          C60   1.268       .  A
O58          C60   1.270       .  A
C60        C1146   1.486       .  S
O61          C66   1.271       .  A
O62          C64   1.274       .  A
C63          O65   1.268       .  A
C63        C1057   1.485       .  S
C64        C1086   1.465       .  S
C66        C1226   1.486       .  S
Fe67         O83   2.062       .  S
Fe67         O73   2.073       .  S
Fe67         O80   2.073       .  S
Fe67         O72   2.060       .  S
Fe67         O78   1.951       .  S
Fe68         O71   2.060       .  S
Fe68         O75   2.063       .  S
Fe68         O79   2.059       .  S
Fe68         O84   2.068       .  S
Fe68         O78   1.946       .  S
Fe69         O87   2.079       .  S
Fe69         O74   2.071       .  S
Fe69         O81   2.056       .  S
Fe69         O70   2.081       .  S
Fe69         O78   1.957       .  S
O70          C77   1.270       .  A
O71          C85   1.267       .  A
O72          C77   1.268       .  A
O73          C76   1.274       .  A
O74          C86   1.273       .  A
O75          C88   1.269       .  A
C76          O81   1.271       .  A
C76        C1006   1.473       .  S
C77         C957   1.489       .  S
O79          C82   1.271       .  A
O80          C82   1.272       .  A
C82         C986   1.485       .  S
O83          C88   1.270       .  A
O84          C86   1.274       .  A
C85          O87   1.270       .  A
C85        C1166   1.487       .  S
C86        C1077   1.473       .  S
C88        C1017   1.483       .  S
Fe89        O105   2.048       .  S
Fe89         O95   2.064       .  S
Fe89        O102   2.083       .  S
Fe89         O94   2.029       .  S
Fe89        O100   1.956       .  S
Fe90         O93   2.048       .  S
Fe90         O97   2.072       .  S
Fe90        O101   2.057       .  S
Fe90        O106   2.053       .  S
Fe90        O100   1.954       .  S
Fe91        O109   2.121       .  S
Fe91         O96   2.062       .  S
Fe91        O103   2.071   1_455  S
Fe91         O92   2.108       .  S
Fe91        O100   1.970       .  S
O92          C99   1.280       .  A
O93         C107   1.273       .  A
O94          C99   1.267       .  A
O95          C98   1.269   1_455  A
O96         C108   1.265       .  A
O97         C110   1.270       .  A
C98         O103   1.269       .  A
C98         C866   1.487       .  S
C99         C917   1.481       .  S
O101        C104   1.267       .  A
O102        C104   1.272       .  A
C104        C886   1.476       .  S
O105        C110   1.265       .  A
O106        C108   1.264       .  A
C107        O109   1.284       .  A
C107        C906   1.488       .  S
C108       C1026   1.478       .  S
C110        C937   1.480       .  S
Fe111       O127   2.068       .  S
Fe111       O117   2.056       .  S
Fe111       O124   2.056       .  S
Fe111       O116   2.065       .  S
Fe111       O122   1.964       .  S
Fe112       O115   2.079       .  S
Fe112       O119   2.041       .  S
Fe112       O123   2.077       .  S
Fe112       O128   2.055       .  S
Fe112       O122   1.959       .  S
Fe113       O131   2.088       .  S
Fe113       O118   2.072       .  S
Fe113       O125   2.081   1_455  S
Fe113       O114   2.079       .  S
Fe113       O122   1.971       .  S
O114        C121   1.275       .  A
O115        C129   1.277       .  A
O116        C121   1.272       .  A
O117        C120   1.266   1_455  A
O118        C130   1.266       .  A
O119        C132   1.265       .  A
C120        O125   1.270       .  A
C120        C817   1.491       .  S
C121        C977   1.478       .  S
O123        C126   1.272       .  A
O124        C126   1.269       .  A
C126       C1066   1.486       .  S
O127        C132   1.268       .  A
O128        C130   1.263       .  A
C129        O131   1.279       .  A
C129        C897   1.485       .  S
C130        C846   1.484       .  S
C132        C997   1.479       .  S
Fe133       O149   2.064       .  S
Fe133       O139   2.067       .  S
Fe133       O146   2.064       .  S
Fe133       O138   2.055       .  S
Fe133       O144   1.950       .  S
Fe134       O137   2.054       .  S
Fe134       O141   2.072       .  S
Fe134       O145   2.053       .  S
Fe134       O150   2.078       .  S
Fe134       O144   1.944       .  S
Fe135       O153   2.083       .  S
Fe135       O140   2.077       .  S
Fe135       O147   2.066       .  S
Fe135       O136   2.081       .  S
Fe135       O144   1.957       .  S
O136        C143   1.269       .  A
O137        C151   1.264       .  A
O138        C143   1.265       .  A
O139        C142   1.273       .  A
O140        C152   1.276       .  A
O141        C154   1.271       .  A
C142        O147   1.276       .  A
C142       C1306   1.472       .  S
C143        C777   1.489   1_565  S
O145        C148   1.268       .  A
O146        C148   1.270       .  A
C148       C1286   1.480       .  S
O149        C154   1.269       .  A
O150        C152   1.277       .  A
C151        O153   1.269       .  A
C151        C877   1.481       .  S
C152        C797   1.476       .  S
C154       C1186   1.488       .  S
Fe155       O171   2.059       .  S
Fe155       O161   2.064       .  S
Fe155       O168   2.074       .  S
Fe155       O160   2.054       .  S
Fe155       O166   1.953       .  S
Fe156       O159   2.048       .  S
Fe156       O163   2.079       .  S
Fe156       O167   2.051       .  S
Fe156       O172   2.072       .  S
Fe156       O166   1.947       .  S
Fe157       O175   2.089       .  S
Fe157       O162   2.073       .  S
Fe157       O169   2.066       .  S
Fe157       O158   2.086   1_565  S
Fe157       O166   1.963       .  S
O158        C165   1.272       .  A
O159        C173   1.265       .  A
O160        C165   1.268   1_565  A
O161        C164   1.272       .  A
O162        C174   1.273       .  A
O163        C176   1.271       .  A
C164        O169   1.273       .  A
C164        C946   1.476       .  S
C165        C757   1.488       .  S
O167        C170   1.267       .  A
O168        C170   1.270       .  A
C170        C926   1.480       .  S
O171        C176   1.269       .  A
O172        C174   1.273       .  A
C173        O175   1.272       .  A
C173       C1257   1.486       .  S
C174        C806   1.467       .  S
C176        C837   1.489       .  S
Fe177       O193   2.073       .  S
Fe177       O183   2.057       .  S
Fe177       O190   2.066       .  S
Fe177       O182   2.067       .  S
Fe177       O188   1.963       .  S
Fe178       O181   2.064       .  S
Fe178       O185   2.045       .  S
Fe178       O189   2.063       .  S
Fe178       O194   2.051       .  S
Fe178       O188   1.957       .  S
Fe179       O197   2.077       .  S
Fe179       O184   2.072       .  S
Fe179       O191   2.076       .  S
Fe179       O180   2.066       .  S
Fe179       O188   1.974       .  S
O180        C187   1.273       .  A
O181        C195   1.274       .  A
O182        C187   1.272       .  A
O183        C186   1.267       .  A
O184        C196   1.267       .  A
O185        C198   1.265       .  A
C186        O191   1.269       .  A
C186       C1106   1.488       .  S
C187        C717   1.473       .  S
O189        C192   1.270       .  A
O190        C192   1.271       .  A
C192        C706   1.485       .  S
O193        C198   1.269       .  A
O194        C196   1.264       .  A
C195        O197   1.275       .  A
C195        C677   1.476       .  S
C196        C657   1.486       .  S
C198        C737   1.480       .  S
Fe199       O215   2.068       .  S
Fe199       O205   2.061       .  S
Fe199       O212   2.063       .  S
Fe199       O204   2.062       .  S
Fe199       O210   1.960       .  S
Fe200       O203   2.070       .  S
Fe200       O207   2.052       .  S
Fe200       O211   2.075       .  S
Fe200       O216   2.063       .  S
Fe200       O210   1.951       .  S
Fe201       O219   2.079       .  S
Fe201       O206   2.087       .  S
Fe201       O213   2.089       .  S
Fe201       O202   2.074       .  S
Fe201       O210   1.965       .  S
O202        C209   1.273       .  A
O203        C217   1.274       .  A
O204        C209   1.270       .  A
O205        C208   1.269       .  A
O206        C218   1.272       .  A
O207        C220   1.266       .  A
C208        O213   1.273       .  A
C208        C826   1.491       .  S
C209        C597   1.476       .  S
O211        C214   1.272       .  A
O212        C214   1.271       .  A
C214        C626   1.488       .  S
O215        C220   1.268       .  A
O216        C218   1.267       .  A
C217        O219   1.275       .  A
C217        C686   1.478       .  S
C218        C637   1.493       .  S
C220        C577   1.473       .  S
Fe221       O237   2.068       .  S
Fe221       O227   2.056       .  S
Fe221       O234   2.072       .  S
Fe221       O226   2.066       .  S
Fe221       O232   1.970       .  S
Fe222       O225   2.045       .  S
Fe222       O229   2.062       .  S
Fe222       O233   2.051       .  S
Fe222       O238   2.061       .  S
Fe222       O232   1.965       .  S
Fe223       O241   2.067       .  S
Fe223       O228   2.093       .  S
Fe223       O235   2.080       .  S
Fe223       O224   2.074       .  S
Fe223       O232   1.981       .  S
O224        C231   1.269       .  A
O225        C239   1.261       .  A
O226        C231   1.270       .  A
O227        C230   1.270       .  A
O228        C240   1.279       .  A
O229        C242   1.270       .  A
C230        O235   1.274       .  A
C230        C586   1.482       .  S
C231        C966   1.493   1_655  S
O233        C236   1.265       .  A
O234        C236   1.268       .  A
C236        C606   1.487       .  S
O237        C242   1.271       .  A
O238        C240   1.274       .  A
C239        O241   1.265       .  A
C239        C546   1.482       .  S
C240        C566   1.481       .  S
C242        C666   1.486       .  S
Fe243       O259   2.059       .  S
Fe243       O249   2.075       .  S
Fe243       O256   2.086       .  S
Fe243       O248   2.057       .  S
Fe243       O254   1.965       .  S
Fe244       O247   2.048       .  S
Fe244       O251   2.074       .  S
Fe244       O255   2.048       .  S
Fe244       O260   2.070       .  S
Fe244       O254   1.957       .  S
Fe245       O263   2.080       .  S
Fe245       O250   2.091       .  S
Fe245       O257   2.079       .  S
Fe245       O246   2.086       .  S
Fe245       O254   1.973       .  S
O246        C253   1.273       .  A
O247        C261   1.265       .  A
O248        C253   1.269       .  A
O249        C252   1.272       .  A
O250        C262   1.277       .  A
O251        C264   1.272       .  A
C252        O257   1.274       .  A
C252        C497   1.485       .  S
C253        C766   1.491   1_655  S
O255        C258   1.265       .  A
O256        C258   1.272       .  A
C258        C477   1.488       .  S
O259        C264   1.270       .  A
O260        C262   1.273       .  A
C261        O263   1.270       .  A
C261        C617   1.487       .  S
C262        C557   1.483       .  S
C264        C526   1.486       .  S
Fe265       O281   2.071       .  S
Fe265       O271   2.056       .  S
Fe265       O278   2.066       .  S
Fe265       O270   2.062       .  S
Fe265       O276   1.972       .  S
Fe266       O269   2.070       .  S
Fe266       O273   2.038       .  S
Fe266       O277   2.071       .  S
Fe266       O282   2.044       .  S
Fe266       O276   1.965       .  S
Fe267       O285   2.085       .  S
Fe267       O272   2.082       .  S
Fe267       O279   2.089       .  S
Fe267       O268   2.072       .  S
Fe267       O276   1.979       .  S
O268        C275   1.273       .  A
O269        C283   1.273       .  A
O270        C275   1.271       .  A
O271        C274   1.267       .  A
O272        C284   1.270       .  A
O273        C286   1.264       .  A
C274        O279   1.272       .  A
C274       C1206   1.493   1_545  S
C275        C437   1.477       .  S
O277        C280   1.271       .  A
O278        C280   1.270       .  A
C280        C397   1.485       .  S
O281        C286   1.268       .  A
O282        C284   1.262       .  A
C283        O285   1.277       .  A
C283        C417   1.480       .  S
C284        C517   1.488       .  S
C286        C466   1.481       .  S
Fe287       O303   2.081       .  S
Fe287       O293   2.055       .  S
Fe287       O300   2.060       .  S
Fe287       O292   2.066       .  S
Fe287       O298   1.978       .  S
Fe288       O291   2.059       .  S
Fe288       O295   2.049       .  S
Fe288       O299   2.062       .  S
Fe288       O304   2.054       .  S
Fe288       O298   1.968       .  S
Fe289       O307   2.098       .  S
Fe289       O294   2.071       .  S
Fe289       O301   2.080       .  S
Fe289       O290   2.083       .  S
Fe289       O298   1.986       .  S
O290        C297   1.273       .  A
O291        C305   1.272       .  A
O292        C297   1.270       .  A
O293        C296   1.268       .  A
O294        C306   1.267       .  A
O295        C308   1.266       .  A
C296        O301   1.271       .  A
C296        C857   1.491   1_545  S
C297        C486   1.479       .  S
O299        C302   1.269       .  A
O300        C302   1.269       .  A
C302        C537   1.483       .  S
O303        C308   1.270       .  A
O304        C306   1.264       .  A
C305        O307   1.278       .  A
C305        C426   1.487       .  S
C306        C386   1.490       .  S
C308        C506   1.492       .  S
Fe309       O325   2.072       .  S
Fe309       O315   2.054       .  S
Fe309       O322   2.064       .  S
Fe309       O314   2.063       .  S
Fe309       O320   1.967       .  S
Fe310       O313   2.052       .  S
Fe310       O317   2.081       .  S
Fe310       O321   2.047       .  S
Fe310       O326   2.075       .  S
Fe310       O320   1.966       .  S
Fe311       O329   2.071       .  S
Fe311       O316   2.085       .  S
Fe311       O323   2.079       .  S
Fe311       O312   2.076       .  S
Fe311       O320   1.984       .  S
O312        C319   1.269       .  A
O313        C327   1.264       .  A
O314        C319   1.268       .  A
O315        C318   1.271       .  A
O316        C328   1.276       .  A
O317        C330   1.271       .  A
C318        O323   1.275       .  A
C318        C746   1.477       .  S
C319       C1037   1.491       .  S
O321        C324   1.266       .  A
O322        C324   1.268       .  A
C324        C726   1.481       .  S
O325        C330   1.271       .  A
O326        C328   1.275       .  A
C327        O329   1.266       .  A
C327        C406   1.477       .  S
C328        C357   1.482       .  S
C330        C646   1.494       .  S
Fe331       O347   2.064       .  S
Fe331       O337   2.057       .  S
Fe331       O344   2.063       .  S
Fe331       O336   2.057       .  S
Fe331       O342   1.962       .  S
Fe332       O335   2.053       .  S
Fe332       O339   2.076       .  S
Fe332       O343   2.050       .  S
Fe332       O348   2.075       .  S
Fe332       O342   1.959       .  S
Fe333       O351   2.066       .  S
Fe333       O338   2.084       .  S
Fe333       O345   2.074       .  S
Fe333       O334   2.075       .  S
Fe333       O342   1.974       .  S
O334        C341   1.270       .  A
O335        C349   1.265       .  A
O336        C341   1.267       .  A
O337        C340   1.270       .  A
O338        C350   1.276       .  A
O339        C352   1.271       .  A
C340        O345   1.273       .  A
C340        C457   1.475       .  S
C341        C786   1.489       .  S
O343        C346   1.267       .  A
O344        C346   1.269       .  A
C346        C446   1.481       .  S
O347        C352   1.270       .  A
O348        C350   1.275       .  A
C349        O351   1.266       .  A
C349        C697   1.483       .  S
C350        C366   1.482       .  S
C352        C377   1.488       .  S
C353        C354   1.403       .  A
C353        C358   1.398   1_554  A
C353        H363   1.083       .  S
C354        C359   1.488       .  S
C354        C355   1.409   1_554  A
C355        C356   1.405       .  A
C355        F360   1.357       .  S
C356        C357   1.405       .  A
C356        H361   1.083       .  S
C357        C358   1.407       .  A
C358        F362   1.358       .  S
C359        C364   1.407       .  A
C359        C368   1.408       .  A
C364        C365   1.398       .  A
C364        F369   1.358   1_554  S
C365        C366   1.404       .  A
C365        H370   1.083       .  S
C366        C367   1.407       .  A
C367        C368   1.406       .  A
C367        F371   1.357       .  S
C368        H372   1.083       .  S
C373        C374   1.405       .  A
C373        C378   1.401       .  A
C373        H383   1.083       .  S
C374        C379   1.487       .  S
C374        C375   1.406       .  A
C375        C376   1.399       .  A
C375        F380   1.357       .  S
C376        C377   1.408       .  A
C376        H381   1.083       .  S
C377        C378   1.410       .  A
C378        F382   1.357       .  S
C379        C384   1.408       .  A
C379        C388   1.403       .  A
C384        C385   1.401       .  A
C384        F389   1.357       .  S
C385        C386   1.408       .  A
C385        H390   1.083       .  S
C386        C387   1.412       .  A
C387        C388   1.397       .  A
C387        F391   1.357       .  S
C388        H392   1.084       .  S
C393        C394   1.406       .  A
C393        C398   1.399       .  A
C393        H403   1.083       .  S
C394        C399   1.489       .  S
C394        C395   1.408       .  A
C395        C396   1.399       .  A
C395        F400   1.357       .  S
C396        C397   1.406       .  A
C396        H401   1.083       .  S
C397        C398   1.409       .  A
C398        F402   1.358       .  S
C399        C404   1.410       .  A
C399        C408   1.406       .  A
C404        C405   1.399       .  A
C404        F409   1.357       .  S
C405        C406   1.404       .  A
C405        H410   1.083       .  S
C406        C407   1.406       .  A
C407        C408   1.397       .  A
C407        F411   1.358       .  S
C408        H412   1.083       .  S
C413        C414   1.408       .  A
C413        C418   1.404       .  A
C413        H423   1.083       .  S
C414        C419   1.492       .  S
C414        C415   1.408       .  A
C415        C416   1.400       .  A
C415        F420   1.357       .  S
C416        C417   1.404       .  A
C416        H421   1.084       .  S
C417        C418   1.406       .  A
C418        F422   1.357       .  S
C419        C424   1.407       .  A
C419        C428   1.409       .  A
C424        C425   1.397       .  A
C424        F429   1.358       .  S
C425        C426   1.406       .  A
C425        H430   1.084       .  S
C426        C427   1.409       .  A
C427        C428   1.407       .  A
C427        F431   1.357       .  S
C428        H432   1.084   1_545  S
C433        C434   1.403       .  A
C433        C438   1.397       .  A
C433        H443   1.085       .  S
C434        C439   1.472       .  S
C434        C435   1.401       .  A
C435        C436   1.396       .  A
C435        F440   1.358       .  S
C436        C437   1.408       .  A
C436        H441   1.084       .  S
C437        C438   1.406       .  A
C438        F442   1.357       .  S
C439        C444   1.403   1_556  A
C439        C448   1.400       .  A
C444        C445   1.399       .  A
C444        F449   1.357       .  S
C445        C446   1.409       .  A
C445        H450   1.083       .  S
C446        C447   1.411       .  A
C447        C448   1.392   1_554  A
C447        F451   1.358       .  S
C448        H452   1.084       .  S
C453        C454   1.405       .  A
C453        C458   1.399       .  A
C453        H463   1.084       .  S
C454        C459   1.471       .  S
C454        C455   1.400       .  A
C455        C456   1.392       .  A
C455        F460   1.358       .  S
C456        C457   1.407       .  A
C456        H461   1.084       .  S
C457        C458   1.406       .  A
C458        F462   1.357       .  S
C459        C464   1.401       .  A
C459        C468   1.402       .  A
C464        C465   1.391       .  A
C464        F469   1.358       .  S
C465        C466   1.408       .  A
C465        H470   1.084       .  S
C466        C467   1.410       .  A
C467        C468   1.400       .  A
C467        F471   1.357       .  S
C468        H472   1.084       .  S
C473        C474   1.400       .  A
C473        C478   1.397       .  A
C473        H483   1.083       .  S
C474        C479   1.477       .  S
C474        C475   1.403       .  A
C475        C476   1.403   1_554  A
C475        F480   1.357       .  S
C476        C477   1.409       .  A
C476        H481   1.083       .  S
C477        C478   1.412   1_556  A
C478        F482   1.358       .  S
C479        C484   1.402       .  A
C479        C488   1.405       .  A
C484        C485   1.398       .  A
C484        F489   1.357       .  S
C485        C486   1.406       .  A
C485        H490   1.083       .  S
C486        C487   1.407       .  A
C487        C488   1.403       .  A
C487        F491   1.357       .  S
C488        H492   1.083       .  S
C493        C494   1.399       .  A
C493        C498   1.398       .  A
C493        H503   1.084       .  S
C494        C499   1.480       .  S
C494        C495   1.408       .  A
C495        C496   1.402       .  A
C495        F500   1.358       .  S
C496        C497   1.405       .  A
C496        H501   1.083       .  S
C497        C498   1.412       .  A
C498        F502   1.358       .  S
C499        C504   1.406       .  A
C499        C508   1.398       .  A
C504        C505   1.407       .  A
C504        F509   1.357       .  S
C505        C506   1.411       .  A
C505        H510   1.082       .  S
C506        C507   1.413       .  A
C507        C508   1.393       .  A
C507        F511   1.357       .  S
C508        H512   1.083       .  S
C513        C514   1.402       .  A
C513        C518   1.397       .  A
C513        H523   1.083       .  S
C514        C519   1.486       .  S
C514        C515   1.408       .  A
C515        C516   1.400       .  A
C515        F520   1.357       .  S
C516        C517   1.407       .  A
C516        H521   1.083       .  S
C517        C518   1.413       .  A
C518        F522   1.358       .  S
C519        C524   1.406       .  A
C519        C528   1.405       .  A
C524        C525   1.397       .  A
C524        F529   1.357       .  S
C525        C526   1.407       .  A
C525        H530   1.083       .  S
C526        C527   1.410       .  A
C527        C528   1.399       .  A
C527        F531   1.357       .  S
C528        H532   1.083       .  S
C533        C534   1.402       .  A
C533        C538   1.395       .  A
C533        H543   1.084       .  S
C534        C539   1.479       .  S
C534        C535   1.405       .  A
C535        C536   1.397       .  A
C535        F540   1.358       .  S
C536        C537   1.408       .  A
C536        H541   1.083       .  S
C537        C538   1.411       .  A
C538        F542   1.357       .  S
C539        C544   1.407       .  A
C539        C548   1.401       .  A
C544        C545   1.398       .  A
C544        F549   1.358       .  S
C545        C546   1.406       .  A
C545        H550   1.084       .  S
C546        C547   1.410       .  A
C547        C548   1.395       .  A
C547        F551   1.357       .  S
C548        H552   1.085       .  S
C553        C554   1.409   1_556  A
C553        C558   1.405       .  A
C553        H563   1.083       .  S
C554        C559   1.492       .  S
C554        C555   1.408       .  A
C555        C556   1.400   1_554  A
C555        F560   1.357       .  S
C556        C557   1.405       .  A
C556        H561   1.084       .  S
C557        C558   1.406       .  A
C558        F562   1.357       .  S
C559        C564   1.411       .  A
C559        C568   1.404       .  A
C564        C565   1.406       .  A
C564        F569   1.357       .  S
C565        C566   1.405       .  A
C565        H570   1.084       .  S
C566        C567   1.407       .  A
C567        C568   1.396       .  A
C567        F571   1.358       .  S
C568        H572   1.084   1_554  S
C573        C574   1.402       .  A
C573        C578   1.399       .  A
C573        H583   1.084       .  S
C574        C579   1.475       .  S
C574        C575   1.406       .  A
C575        C576   1.393       .  A
C575        F580   1.358       .  S
C576        C577   1.402       .  A
C576        H581   1.084       .  S
C577        C578   1.409       .  A
C578        F582   1.358       .  S
C579        C584   1.401       .  A
C579        C588   1.405       .  A
C584        C585   1.392       .  A
C584        F589   1.358       .  S
C585        C586   1.408       .  A
C585        H590   1.084       .  S
C586        C587   1.409       .  A
C587        C588   1.402       .  A
C587        F591   1.357       .  S
C588        H592   1.084       .  S
C593        C594   1.401       .  A
C593        C598   1.395       .  A
C593        H603   1.083       .  S
C594        C599   1.482       .  S
C594        C595   1.409       .  A
C595        C596   1.400       .  A
C595        F600   1.357       .  S
C596        C597   1.403       .  A
C596        H601   1.083       .  S
C597        C598   1.410       .  A
C598        F602   1.358       .  S
C599        C604   1.405       .  A
C599        C608   1.405   1_556  A
C604        C605   1.395   1_556  A
C604        F609   1.358       .  S
C605        C606   1.408       .  A
C605        H610   1.084       .  S
C606        C607   1.410       .  A
C607        C608   1.401       .  A
C607        F611   1.357       .  S
C608        H612   1.084       .  S
C613        C614   1.403       .  A
C613        C618   1.401       .  A
C613        H623   1.084       .  S
C614        C619   1.476       .  S
C614        C615   1.401       .  A
C615        C616   1.396       .  A
C615        F620   1.358       .  S
C616        C617   1.409       .  A
C616        H621   1.084       .  S
C617        C618   1.411       .  A
C618        F622   1.357       .  S
C619        C624   1.403       .  A
C619        C628   1.400       .  A
C624        C625   1.399       .  A
C624        F629   1.358       .  S
C625        C626   1.409       .  A
C625        H630   1.083       .  S
C626        C627   1.413       .  A
C627        C628   1.398       .  A
C627        F631   1.357       .  S
C628        H632   1.084       .  S
C633        C634   1.405       .  A
C633        C638   1.404       .  A
C633        H643   1.083       .  S
C634        C639   1.494       .  S
C634        C635   1.409       .  A
C635        C636   1.401       .  A
C635        F640   1.357       .  S
C636        C637   1.407       .  A
C636        H641   1.083       .  S
C637        C638   1.412       .  A
C638        F642   1.358       .  S
C639        C644   1.407       .  A
C639        C648   1.406       .  A
C644        C645   1.400       .  A
C644        F649   1.357       .  S
C645        C646   1.407       .  A
C645        H650   1.083       .  S
C646        C647   1.412       .  A
C647        C648   1.405       .  A
C647        F651   1.357       .  S
C648        H652   1.083       .  S
C653        C654   1.402       .  A
C653        C658   1.398       .  A
C653        H663   1.083       .  S
C654        C659   1.474       .  S
C654        C655   1.402       .  A
C655        C656   1.397       .  A
C655        F660   1.358       .  S
C656        C657   1.410       .  A
C656        H661   1.082       .  S
C657        C658   1.411       .  A
C658        F662   1.357       .  S
C659        C664   1.402       .  A
C659        C668   1.401       .  A
C664        C665   1.398       .  A
C664        F669   1.357       .  S
C665        C666   1.409       .  A
C665        H670   1.084       .  S
C666        C667   1.412       .  A
C667        C668   1.397       .  A
C667        F671   1.357       .  S
C668        H672   1.085       .  S
C673        C674   1.406       .  A
C673        C678   1.404       .  A
C673        H683   1.084       .  S
C674        C679   1.480       .  S
C674        C675   1.405       .  A
C675        C676   1.394       .  A
C675        F680   1.358       .  S
C676        C677   1.404       .  A
C676        H681   1.085       .  S
C677        C678   1.407       .  A
C678        F682   1.357       .  S
C679        C684   1.405       .  A
C679        C688   1.405       .  A
C684        C685   1.396       .  A
C684        F689   1.358       .  S
C685        C686   1.405       .  A
C685        H690   1.084       .  S
C686        C687   1.406       .  A
C687        C688   1.403       .  A
C687        F691   1.357       .  S
C688        H692   1.083       .  S
C693        C694   1.402       .  A
C693        C698   1.396       .  A
C693        H703   1.083       .  S
C694        C699   1.478       .  S
C694        C695   1.404       .  A
C695        C696   1.396       .  A
C695        F700   1.358       .  S
C696        C697   1.407       .  A
C696        H701   1.083       .  S
C697        C698   1.411       .  A
C698        F702   1.358       .  S
C699        C704   1.405       .  A
C699        C708   1.401       .  A
C704        C705   1.397       .  A
C704        F709   1.358       .  S
C705        C706   1.407       .  A
C705        H710   1.083       .  S
C706        C707   1.413       .  A
C707        C708   1.397       .  A
C707        F711   1.357       .  S
C708        H712   1.083       .  S
C713        C714   1.400       .  A
C713        C718   1.394       .  A
C713        H723   1.083       .  S
C714        C719   1.474       .  S
C714        C715   1.407       .  A
C715        C716   1.397       .  A
C715        F720   1.358       .  S
C716        C717   1.403       .  A
C716        H721   1.083       .  S
C717        C718   1.409       .  A
C718        F722   1.358       .  S
C719        C724   1.403       .  A
C719        C728   1.403       .  A
C724        C725   1.392       .  A
C724        F729   1.358       .  S
C725        C726   1.407   1_554  A
C725        H730   1.082       .  S
C726        C727   1.411       .  A
C727        C728   1.399   1_556  A
C727        F731   1.357       .  S
C728        H732   1.083       .  S
C733        C734   1.406       .  A
C733        C738   1.401       .  A
C733        H743   1.083       .  S
C734        C739   1.479       .  S
C734        C735   1.404       .  A
C735        C736   1.392       .  A
C735        F740   1.358       .  S
C736        C737   1.406       .  A
C736        H741   1.084       .  S
C737        C738   1.408       .  A
C738        F742   1.357       .  S
C739        C744   1.402       .  A
C739        C748   1.408       .  A
C744        C745   1.393       .  A
C744        F749   1.358       .  S
C745        C746   1.407       .  A
C745        H750   1.080       .  S
C746        C747   1.405       .  A
C747        C748   1.401       .  A
C747        F751   1.357       .  S
C748        H752   1.079       .  S
C753        C754   1.402       .  A
C753        C758   1.400       .  A
C753        H763   1.083       .  S
C754        C759   1.484       .  S
C754        C755   1.406       .  A
C755        C756   1.399       .  A
C755        F760   1.358       .  S
C756        C757   1.409       .  A
C756        H761   1.083       .  S
C757        C758   1.411       .  A
C758        F762   1.357       .  S
C759        C764   1.406       .  A
C759        C768   1.402       .  A
C764        C765   1.399       .  A
C764        F769   1.358       .  S
C765        C766   1.409       .  A
C765        H770   1.083   1_455  S
C766        C767   1.413       .  A
C767        C768   1.400       .  A
C767        F771   1.357       .  S
C768        H772   1.084       .  S
C773        C774   1.403       .  A
C773        C778   1.399       .  A
C773        H783   1.083       .  S
C774        C779   1.481       .  S
C774        C775   1.403       .  A
C775        C776   1.399       .  A
C775        F780   1.357       .  S
C776        C777   1.410       .  A
C776        H781   1.083       .  S
C777        C778   1.412       .  A
C778        F782   1.358       .  S
C779        C784   1.403       .  A
C779        C788   1.402       .  A
C784        C785   1.400       .  A
C784        F789   1.357       .  S
C785        C786   1.410       .  A
C785        H790   1.083       .  S
C786        C787   1.412       .  A
C787        C788   1.399       .  A
C787        F791   1.357       .  S
C788        H792   1.084       .  S
C793        C794   1.408   1_545  A
C793        C798   1.407       .  A
C793        H803   1.083       .  S
C794        C799   1.484   1_565  S
C794        C795   1.406       .  A
C795        C796   1.391       .  A
C795        F800   1.358       .  S
C796        C797   1.402       .  A
C796        H801   1.084       .  S
C797        C798   1.407   1_565  A
C798        F802   1.357       .  S
C799        C804   1.407   1_545  A
C799        C808   1.406       .  A
C804        C805   1.400       .  A
C804        F809   1.357       .  S
C805        C806   1.403       .  A
C805        H810   1.083       .  S
C806        C807   1.402       .  A
C807        C808   1.398   1_565  A
C807        F811   1.358       .  S
C808        H812   1.083       .  S
C813        C814   1.402       .  A
C813        C818   1.399       .  A
C813        H823   1.083       .  S
C814        C819   1.480       .  S
C814        C815   1.402       .  A
C815        C816   1.401       .  A
C815        F820   1.357       .  S
C816        C817   1.410       .  A
C816        H821   1.083       .  S
C817        C818   1.412       .  A
C818        F822   1.358       .  S
C819        C824   1.405       .  A
C819        C828   1.400       .  A
C824        C825   1.400       .  A
C824        F829   1.358       .  S
C825        C826   1.409       .  A
C825        H830   1.084       .  S
C826        C827   1.414       .  A
C827        C828   1.401       .  A
C827        F831   1.357       .  S
C828        H832   1.084       .  S
C833        C834   1.405       .  A
C833        C838   1.400       .  A
C833        H843   1.083       .  S
C834        C839   1.488       .  S
C834        C835   1.408       .  A
C835        C836   1.398       .  A
C835        F840   1.357       .  S
C836        C837   1.407       .  A
C836        H841   1.083       .  S
C837        C838   1.411       .  A
C838        F842   1.357       .  S
C839        C844   1.408       .  A
C839        C848   1.405       .  A
C844        C845   1.398       .  A
C844        F849   1.357       .  S
C845        C846   1.405       .  A
C845        H850   1.084       .  S
C846        C847   1.409       .  A
C847        C848   1.399       .  A
C847        F851   1.358       .  S
C848        H852   1.084       .  S
C853        C854   1.403       .  A
C853        C858   1.404       .  A
C853        H863   1.081       .  S
C854        C859   1.484       .  S
C854        C855   1.405       .  A
C855        C856   1.396       .  A
C855        F860   1.358       .  S
C856        C857   1.408       .  A
C856        H861   1.082   1_565  S
C857        C858   1.414       .  A
C858        F862   1.357       .  S
C859        C864   1.405       .  A
C859        C868   1.404       .  A
C864        C865   1.404       .  A
C864        F869   1.357       .  S
C865        C866   1.410       .  A
C865        H870   1.080       .  S
C866        C867   1.409       .  A
C867        C868   1.397       .  A
C867        F871   1.358       .  S
C868        H872   1.080       .  S
C873        C874   1.406       .  A
C873        C878   1.395       .  A
C873        H883   1.083       .  S
C874        C879   1.489       .  S
C874        C875   1.409       .  A
C875        C876   1.401       .  A
C875        F880   1.357       .  S
C876        C877   1.406       .  A
C876        H881   1.083       .  S
C877        C878   1.407       .  A
C878        F882   1.358       .  S
C879        C884   1.411       .  A
C879        C888   1.406       .  A
C884        C885   1.401       .  A
C884        F889   1.357       .  S
C885        C886   1.404       .  A
C885        H890   1.084       .  S
C886        C887   1.404       .  A
C887        C888   1.395       .  A
C887        F891   1.358       .  S
C888        H892   1.084       .  S
C893        C894   1.406   1_455  A
C893        C898   1.400   1_554  A
C893        H903   1.081       .  S
C894        C899   1.494       .  S
C894        C895   1.411   1_554  A
C895        C896   1.406       .  A
C895        F900   1.357       .  S
C896        C897   1.405   1_655  A
C896        H901   1.082       .  S
C897        C898   1.408       .  A
C898        F902   1.358       .  S
C899        C904   1.411       .  A
C899        C908   1.404   1_655  A
C904        C905   1.408       .  A
C904        F909   1.357       .  S
C905        C906   1.407   1_655  A
C905        H910   1.082       .  S
C906        C907   1.409       .  A
C907        C908   1.398       .  A
C907        F911   1.358       .  S
C908        H912   1.082   1_554  S
C913        C914   1.407       .  A
C913        C918   1.404       .  A
C913        H923   1.082       .  S
C914        C919   1.476       .  S
C914        C915   1.400       .  A
C915        C916   1.390       .  A
C915        F920   1.358       .  S
C916        C917   1.409       .  A
C916        H921   1.082       .  S
C917        C918   1.407       .  A
C918        F922   1.357       .  S
C919        C924   1.403       .  A
C919        C928   1.403       .  A
C924        C925   1.399       .  A
C924        F929   1.357       .  S
C925        C926   1.408       .  A
C925        H930   1.082       .  S
C926        C927   1.409       .  A
C927        C928   1.395       .  A
C927        F931   1.358       .  S
C928        H932   1.082       .  S
C933        C934   1.400   1_554  A
C933        C938   1.399       .  A
C933        H943   1.083       .  S
C934        C939   1.468       .  S
C934        C935   1.401       .  A
C935        C936   1.393   1_556  A
C935        F940   1.358       .  S
C936        C937   1.406       .  A
C936        H941   1.083       .  S
C937        C938   1.412       .  A
C938        F942   1.357       .  S
C939        C944   1.399       .  A
C939        C948   1.404       .  A
C944        C945   1.392       .  A
C944        F949   1.358       .  S
C945        C946   1.408       .  A
C945        H950   1.083       .  S
C946        C947   1.407       .  A
C947        C948   1.399       .  A
C947        F951   1.357       .  S
C948        H952   1.083       .  S
C953        C954   1.404       .  A
C953        C958   1.403       .  A
C953        H963   1.083       .  S
C954        C959   1.487       .  S
C954        C955   1.406       .  A
C955        C956   1.398       .  A
C955        F960   1.358       .  S
C956        C957   1.407       .  A
C956        H961   1.083       .  S
C957        C958   1.413       .  A
C958        F962   1.357       .  S
C959        C964   1.407       .  A
C959        C968   1.402       .  A
C964        C965   1.400       .  A
C964        F969   1.358       .  S
C965        C966   1.408       .  A
C965        H970   1.083   1_455  S
C966        C967   1.415       .  A
C967        C968   1.402       .  A
C967        F971   1.357       .  S
C968        H972   1.083       .  S
C973        C974   1.400       .  A
C973        C978   1.395       .  A
C973        H983   1.084       .  S
C974        C979   1.479       .  S
C974        C975   1.408       .  A
C975        C976   1.402       .  A
C975        F980   1.358       .  S
C976        C977   1.404       .  A
C976        H981   1.083       .  S
C977        C978   1.409       .  A
C978        F982   1.358       .  S
C979        C984   1.404       .  A
C979        C988   1.402       .  A
C984        C985   1.397       .  A
C984        F989   1.358       .  S
C985        C986   1.408       .  A
C985        H990   1.083       .  S
C986        C987   1.412       .  A
C987        C988   1.399       .  A
C987        F991   1.357       .  S
C988        H992   1.083       .  S
C993        C994   1.404       .  A
C993        C998   1.400   1_554  A
C993       H1003   1.084       .  S
C994        C999   1.474       .  S
C994        C995   1.403       .  A
C995        C996   1.389   1_554  A
C995       F1000   1.358       .  S
C996        C997   1.406       .  A
C996       H1001   1.084       .  S
C997        C998   1.410       .  A
C998       F1002   1.357       .  S
C999       C1004   1.403       .  A
C999       C1008   1.404       .  A
C1004      C1005   1.394       .  A
C1004      F1009   1.357       .  S
C1005      C1006   1.406       .  A
C1005      H1010   1.083       .  S
C1006      C1007   1.406       .  A
C1007      C1008   1.395       .  A
C1007      F1011   1.358       .  S
C1008      H1012   1.083       .  S
C1013      C1014   1.401       .  A
C1013      C1018   1.396       .  A
C1013      H1023   1.083       .  S
C1014      C1019   1.477       .  S
C1014      C1015   1.405       .  A
C1015      C1016   1.398       .  A
C1015      F1020   1.358       .  S
C1016      C1017   1.407       .  A
C1016      H1021   1.083       .  S
C1017      C1018   1.411       .  A
C1018      F1022   1.357       .  S
C1019      C1024   1.406       .  A
C1019      C1028   1.401       .  A
C1024      C1025   1.399       .  A
C1024      F1029   1.357       .  S
C1025      C1026   1.406       .  A
C1025      H1030   1.084       .  S
C1026      C1027   1.409       .  A
C1027      C1028   1.394       .  A
C1027      F1031   1.358       .  S
C1028      H1032   1.084       .  S
C1033      C1034   1.406       .  A
C1033      C1038   1.401       .  A
C1033      H1043   1.079       .  S
C1034      C1039   1.488       .  S
C1034      C1035   1.405       .  A
C1035      C1036   1.402       .  A
C1035      F1040   1.357       .  S
C1036      C1037   1.410       .  A
C1036      H1041   1.080       .  S
C1037      C1038   1.410       .  A
C1038      F1042   1.357       .  S
C1039      C1044   1.406       .  A
C1039      C1048   1.404       .  A
C1044      C1045   1.404       .  A
C1044      F1049   1.357       .  S
C1045      C1046   1.410       .  A
C1045      H1050   1.081       .  S
C1046      C1047   1.410       .  A
C1047      C1048   1.398       .  A
C1047      F1051   1.357       .  S
C1048      H1052   1.081       .  S
C1053      C1054   1.404       .  A
C1053      C1058   1.398       .  A
C1053      H1063   1.084       .  S
C1054      C1059   1.483       .  S
C1054      C1055   1.405       .  A
C1055      C1056   1.398       .  A
C1055      F1060   1.357       .  S
C1056      C1057   1.407       .  A
C1056      H1061   1.083       .  S
C1057      C1058   1.410       .  A
C1058      F1062   1.358       .  S
C1059      C1064   1.405       .  A
C1059      C1068   1.405       .  A
C1064      C1065   1.395       .  A
C1064      F1069   1.358       .  S
C1065      C1066   1.407       .  A
C1065      H1070   1.084       .  S
C1066      C1067   1.411       .  A
C1067      C1068   1.400       .  A
C1067      F1071   1.357       .  S
C1068      H1072   1.084       .  S
C1073      C1074   1.402       .  A
C1073      C1078   1.388       .  A
C1073      H1083   1.084       .  S
C1074      C1079   1.480       .  S
C1074      C1075   1.409       .  A
C1075      C1076   1.406       .  A
C1075      F1080   1.357       .  S
C1076      C1077   1.405       .  A
C1076      H1081   1.083       .  S
C1077      C1078   1.406       .  A
C1078      F1082   1.359       .  S
C1079      C1084   1.408       .  A
C1079      C1088   1.405       .  A
C1084      C1085   1.397       .  A
C1084      F1089   1.358       .  S
C1085      C1086   1.400       .  A
C1085      H1090   1.083       .  S
C1086      C1087   1.404       .  A
C1087      C1088   1.400       .  A
C1087      F1091   1.358       .  S
C1088      H1092   1.083       .  S
C1093      C1094   1.403       .  A
C1093      C1098   1.402       .  A
C1093      H1103   1.084       .  S
C1094      C1099   1.484       .  S
C1094      C1095   1.406       .  A
C1095      C1096   1.396       .  A
C1095      F1100   1.358       .  S
C1096      C1097   1.407       .  A
C1096      H1101   1.084       .  S
C1097      C1098   1.413       .  A
C1098      F1102   1.357       .  S
C1099      C1104   1.405       .  A
C1099      C1108   1.403       .  A
C1104      C1105   1.402       .  A
C1104      F1109   1.357       .  S
C1105      C1106   1.411       .  A
C1105      H1110   1.083       .  S
C1106      C1107   1.410       .  A
C1107      C1108   1.396       .  A
C1107      F1111   1.357       .  S
C1108      H1112   1.084       .  S
C1113      C1114   1.404       .  A
C1113      C1118   1.398       .  A
C1113      H1123   1.084       .  S
C1114      C1119   1.464       .  S
C1114      C1115   1.398       .  A
C1115      C1116   1.391       .  A
C1115      F1120   1.358       .  S
C1116      C1117   1.406       .  A
C1116      H1121   1.084       .  S
C1117      C1118   1.404       .  A
C1118      F1122   1.357       .  S
C1119      C1124   1.399       .  A
C1119      C1128   1.400   1_556  A
C1124      C1125   1.389   1_556  A
C1124      F1129   1.358       .  S
C1125      C1126   1.406       .  A
C1125      H1130   1.084       .  S
C1126      C1127   1.413       .  A
C1127      C1128   1.399       .  A
C1127      F1131   1.357       .  S
C1128      H1132   1.085       .  S
C1133      C1134   1.398       .  A
C1133      C1138   1.396       .  A
C1133      H1143   1.084       .  S
C1134      C1139   1.473       .  S
C1134      C1135   1.406       .  A
C1135      C1136   1.401       .  A
C1135      F1140   1.357       .  S
C1136      C1137   1.403       .  A
C1136      H1141   1.084       .  S
C1137      C1138   1.411       .  A
C1138      F1142   1.358       .  S
C1139      C1144   1.402       .  A
C1139      C1148   1.400       .  A
C1144      C1145   1.396       .  A
C1144      F1149   1.358       .  S
C1145      C1146   1.408       .  A
C1145      H1150   1.084       .  S
C1146      C1147   1.413       .  A
C1147      C1148   1.400       .  A
C1147      F1151   1.357       .  S
C1148      H1152   1.085       .  S
C1153      C1154   1.406       .  A
C1153      C1158   1.401       .  A
C1153      H1163   1.082       .  S
C1154      C1159   1.487       .  S
C1154      C1155   1.408       .  A
C1155      C1156   1.395       .  A
C1155      F1160   1.357       .  S
C1156      C1157   1.405       .  A
C1156      H1161   1.082       .  S
C1157      C1158   1.411       .  A
C1158      F1162   1.358       .  S
C1159      C1164   1.407       .  A
C1159      C1168   1.404       .  A
C1164      C1165   1.400       .  A
C1164      F1169   1.357       .  S
C1165      C1166   1.408       .  A
C1165      H1170   1.083       .  S
C1166      C1167   1.410       .  A
C1167      C1168   1.396       .  A
C1167      F1171   1.357       .  S
C1168      H1172   1.083       .  S
C1173      C1174   1.405       .  A
C1173      C1178   1.400       .  A
C1173      H1183   1.082       .  S
C1174      C1179   1.486       .  S
C1174      C1175   1.406       .  A
C1175      C1176   1.398       .  A
C1175      F1180   1.358       .  S
C1176      C1177   1.410       .  A
C1176      H1181   1.082       .  S
C1177      C1178   1.410       .  A
C1178      F1182   1.357       .  S
C1179      C1184   1.407       .  A
C1179      C1188   1.404       .  A
C1184      C1185   1.399       .  A
C1184      F1189   1.357       .  S
C1185      C1186   1.408       .  A
C1185      H1190   1.083       .  S
C1186      C1187   1.411       .  A
C1187      C1188   1.399       .  A
C1187      F1191   1.357       .  S
C1188      H1192   1.083       .  S
C1193      C1194   1.404       .  A
C1193      C1198   1.405       .  A
C1193      H1203   1.084       .  S
C1194      C1199   1.488       .  S
C1194      C1195   1.406       .  A
C1195      C1196   1.398       .  A
C1195      F1200   1.358       .  S
C1196      C1197   1.408       .  A
C1196      H1201   1.083       .  S
C1197      C1198   1.413       .  A
C1198      F1202   1.357       .  S
C1199      C1204   1.405       .  A
C1199      C1208   1.404       .  A
C1204      C1205   1.404       .  A
C1204      F1209   1.357       .  S
C1205      C1206   1.410       .  A
C1205      H1210   1.083       .  S
C1206      C1207   1.411       .  A
C1207      C1208   1.399       .  A
C1207      F1211   1.358   1_565  S
C1208      H1212   1.084       .  S
C1213      C1214   1.403       .  A
C1213      C1218   1.402       .  A
C1213      H1223   1.083       .  S
C1214      C1219   1.480       .  S
C1214      C1215   1.404       .  A
C1215      C1216   1.398       .  A
C1215      F1220   1.357       .  S
C1216      C1217   1.406       .  A
C1216      H1221   1.083       .  S
C1217      C1218   1.412       .  A
C1218      F1222   1.358       .  S
C1219      C1224   1.405       .  A
C1219      C1228   1.401       .  A
C1224      C1225   1.398       .  A
C1224      F1229   1.358       .  S
C1225      C1226   1.406       .  A
C1225      H1230   1.087       .  S
C1226      C1227   1.412       .  A
C1227      C1228   1.400       .  A
C1227      F1231   1.357       .  S
C1228      H1232   1.088       .  S
C1233      C1234   1.407       .  A
C1233      C1238   1.405       .  A
C1233      H1243   1.085       .  S
C1234      C1239   1.486   1_554  S
C1234      C1235   1.406       .  A
C1235      C1236   1.397       .  A
C1235      F1240   1.358   1_554  S
C1236      C1237   1.404       .  A
C1236      H1241   1.085       .  S
C1237      C1238   1.407       .  A
C1238      F1242   1.357       .  S
C1239      C1244   1.406   1_556  A
C1239      C1248   1.407       .  A
C1244      C1245   1.396   1_554  A
C1244      F1249   1.358       .  S
C1245      C1246   1.405       .  A
C1245      H1250   1.084       .  S
C1246      C1247   1.408       .  A
C1247      C1248   1.405       .  A
C1247      F1251   1.357       .  S
C1248      H1252   1.084       .  S
C1253      C1254   1.402       .  A
C1253      C1258   1.397       .  A
C1253      H1263   1.083       .  S
C1254      C1259   1.483       .  S
C1254      C1255   1.407       .  A
C1255      C1256   1.400       .  A
C1255      F1260   1.358       .  S
C1256      C1257   1.407       .  A
C1256      H1261   1.082       .  S
C1257      C1258   1.412       .  A
C1258      F1262   1.357       .  S
C1259      C1264   1.406       .  A
C1259      C1268   1.403       .  A
C1264      C1265   1.400       .  A
C1264      F1269   1.358       .  S
C1265      C1266   1.407       .  A
C1265      H1270   1.083       .  S
C1266      C1267   1.410       .  A
C1267      C1268   1.398       .  A
C1267      F1271   1.358       .  S
C1268      H1272   1.083       .  S
C1273      C1274   1.402       .  A
C1273      C1278   1.396       .  A
C1273      H1283   1.083       .  S
C1274      C1279   1.467       .  S
C1274      C1275   1.401       .  A
C1275      C1276   1.394       .  A
C1275      F1280   1.358       .  S
C1276      C1277   1.407       .  A
C1276      H1281   1.083       .  S
C1277      C1278   1.406       .  A
C1278      F1282   1.357       .  S
C1279      C1284   1.401       .  A
C1279      C1288   1.399       .  A
C1284      C1285   1.396       .  A
C1284      F1289   1.358       .  S
C1285      C1286   1.409       .  A
C1285      H1290   1.083       .  S
C1286      C1287   1.411       .  A
C1287      C1288   1.393       .  A
C1287      F1291   1.358       .  S
C1288      H1292   1.084       .  S
C1293      C1294   1.400       .  A
C1293      C1298   1.393       .  A
C1293      H1303   1.083       .  S
C1294      C1299   1.473       .  S
C1294      C1295   1.403       .  A
C1295      C1296   1.398   1_554  A
C1295      F1300   1.357       .  S
C1296      C1297   1.408       .  A
C1296      H1301   1.082       .  S
C1297      C1298   1.412   1_556  A
C1298      F1302   1.358       .  S
C1299      C1304   1.406       .  A
C1299      C1308   1.400       .  A
C1304      C1305   1.396       .  A
C1304      F1309   1.358       .  S
C1305      C1306   1.402       .  A
C1305      H1310   1.084       .  S
C1306      C1307   1.410       .  A
C1307      C1308   1.394       .  A
C1307      F1311   1.358       .  S
C1308      H1312   1.084       .  S
