geometry optimzed in LAMMPS
_audit_creation_date              2020-11-30 
_audit_creation_method            'lammps2cif' 
_symmetry_space_group_name_H-M    'P1' 
_symmetry_Int_Tables_number       1 
_symmetry_cell_setting            triclinic 
loop_ 
_symmetry_equiv_pos_as_xyz 
  x,y,z 
_cell_length_a                    71.16249229265789 
_cell_length_b                    72.72247761151048 
_cell_length_c                    23.021583882336657 
_cell_angle_alpha                 89.4463934930191 
_cell_angle_beta                  90.07926860832501 
_cell_angle_gamma                 89.85197673302395 
loop_ 
_atom_site_label 
_atom_site_type_symbol 
_atom_site_fract_x 
_atom_site_fract_y 
_atom_site_fract_z 
_atom_site_charge 
Zr1        Zr  0.31907778  0.17171780  0.32616049     2.17510
O2          O  0.32662779  0.14338229  0.37856666    -0.52170
O3          O  0.32916421  0.19334629  0.40175126    -0.75380
O4          O  0.35279342  0.16998476  0.32791739    -0.82160
O5          O  0.27227940  0.15775939  0.33860231    -0.83910
O6          O  0.36234856  0.16470055  0.23650446    -0.79530
O7          O  0.29434357  0.16690762  0.40001815    -0.91170
O8          O  0.32668383  0.22172884  0.36045838    -0.77130
O9          O  0.33427594  0.19555662  0.27178358    -0.86620
O10         O  0.29699680  0.19604488  0.32095939    -0.86310
O11         O  0.32616139  0.15962923  0.23042711    -0.73070
O12         O  0.29312601  0.15852483  0.27374826    -0.85200
Zr13       Zr  0.29162952  0.19636899  0.12343190     2.26420
Zr14       Zr  0.34128237  0.18425065  0.17642457     2.06270
Zr15       Zr  0.27061506  0.18299658  0.27074374     2.10050
Zr16       Zr  0.31219372  0.21981334  0.26729666     1.78760
O17         O  0.23884247  0.17163682  0.28793502    -0.94010
O18         O  0.34146168  0.23659013  0.25204095    -0.41810
O19         O  0.28523330  0.20794276  0.21902035    -0.78450
O20         O  0.31858128  0.20886426  0.17300678    -0.97130
O21         O  0.31460833  0.17236354  0.12400396    -0.90440
O22         O  0.27732336  0.17146919  0.17596491    -0.93280
C23         C  0.33092660  0.21098321  0.40246333     1.00470
C24         C  0.27756377  0.16119984  0.39001313     1.13400
C25         C  0.36323114  0.16159128  0.29174085     1.04180
O26         O  0.37002192  0.20192315  0.18852896    -0.95430
O27         O  0.34488310  0.20498690  0.09022179    -0.91180
O28         O  0.31491224  0.20954601  0.05953756    -0.84320
C29         C  0.33262801  0.21227551  0.05519748     1.10820
O30         O  0.31241700  0.11839041  0.21163676    -0.97410
Zr31       Zr  0.30009672  0.14785879  0.17702857     1.88940
O32         O  0.27789332  0.17504981  0.05517346    -0.74060
O33         O  0.35634434  0.16476003  0.10475047    -0.53320
O34         O  0.32046050  0.13405786  0.10437451    -0.98000
O35         O  0.27582800  0.12590910  0.20493722    -0.55220
O36         O  0.27955859  0.14591958  0.09159550    -0.74570
C37         C  0.27347743  0.15798568  0.05490581     0.97770
O38         O  0.27705988  0.21725603  0.05284470    -0.63390
O39         O  0.25662336  0.20517069  0.33701749    -0.58200
O40         O  0.26292236  0.21369188  0.13850875    -0.94880
O41         O  0.25106617  0.19100923  0.18862587    -0.93310
O42         O  0.29056503  0.23932046  0.32074216    -0.93660
O43         O  0.30890141  0.25051825  0.22510975    -0.92450
C44         C  0.25074922  0.20781147  0.17445860     1.16610
H45         H  0.29413483  0.20002566  0.35978188     0.32560
H46         H  0.32330014  0.21989996  0.15490408     0.43410
H47         H  0.26615533  0.16621440  0.15924223     0.36930
H48         H  0.33409334  0.14893232  0.23491898     0.33410
H49         H  0.34152896  0.24623752  0.28211489     0.25200
H50         H  0.36995613  0.16703016  0.10988971     0.31140
H51         H  0.31207429  0.12619282  0.08097595     0.37050
H52         H  0.29867434  0.24710489  0.34531398     0.31510
H53         H  0.24882884  0.19803679  0.36450185     0.30390
H54         H  0.23770779  0.16965137  0.33037537     0.32070
H55         H  0.27297274  0.11901858  0.16911908     0.31030
H56         H  0.31134040  0.24907725  0.18307248     0.35030
H57         H  0.27729816  0.21071735  0.01539199     0.27770
H58         H  0.33557354  0.14710312  0.40923419     0.32000
H59         H  0.30867579  0.10927692  0.18212744     0.34850
H60         H  0.26631784  0.21107659  0.36109338     0.27460
H61         H  0.28559967  0.22788754  0.04793185     0.40330
H62         H  0.37276526  0.20129144  0.23067730     0.30390
H63         H  0.35153298  0.22798388  0.26435142     0.38000
H64         H  0.26450075  0.13352978  0.21165711     0.29850
H65         H  0.35444927  0.15208168  0.11957704     0.29920
H66         H  0.33424747  0.13609977  0.35109520     0.30180
Zr67       Zr  0.19864273  0.20494048  0.82825512     2.17510
O68         O  0.21791883  0.21345924  0.91155079    -0.52170
O69         O  0.17727254  0.22105808  0.89166473    -0.75380
O70         O  0.21671566  0.23290826  0.80954559    -0.82160
O71         O  0.20675101  0.15290046  0.85681850    -0.83910
O72         O  0.20268957  0.24801796  0.73531640    -0.79530
O73         O  0.21248130  0.18154668  0.89157734    -0.91170
O74         O  0.14964448  0.22421626  0.84338669    -0.77130
O75         O  0.17399146  0.21973213  0.77626071    -0.86620
O76         O  0.17301175  0.18371076  0.82827563    -0.86310
O77         O  0.21064925  0.20968978  0.73164091    -0.73070
O78         O  0.21008021  0.17736941  0.78417402    -0.85200
Zr79       Zr  0.17480720  0.17886767  0.62477288     2.26420
Zr80       Zr  0.18532111  0.22541286  0.68146271     2.06270
Zr81       Zr  0.18406733  0.15701254  0.77749324     2.10050
Zr82       Zr  0.14887228  0.19856338  0.77312412     1.78760
O83         O  0.19853536  0.12662369  0.77924957    -0.94010
O84         O  0.12241390  0.21843658  0.74608712    -0.41810
O85         O  0.16102846  0.17274193  0.71968415    -0.78450
O86         O  0.15986812  0.20422613  0.67470139    -0.97130
O87         O  0.20020551  0.19968872  0.63389447    -0.90440
O88         O  0.19722315  0.16238439  0.68258200    -0.93280
C89         C  0.16138071  0.22890937  0.88338914     1.00470
C90         C  0.21450558  0.16398617  0.89285546     1.13400
C91         C  0.21683558  0.24472226  0.76754582     1.04180
O92         O  0.15415821  0.23733150  0.70277888    -0.95430
O93         O  0.18238179  0.22612025  0.57741515    -0.91180
O94         O  0.16290064  0.20273306  0.55701411    -0.84320
C95         C  0.16935581  0.21895616  0.54710759     1.10820
O96         O  0.25062747  0.19191164  0.74581300    -0.97410
Zr97       Zr  0.22283962  0.18271894  0.69106152     1.88940
O98         O  0.20029134  0.17386194  0.55190553    -0.74060
O99         O  0.18787760  0.25722448  0.64412941    -0.53320
O100        O  0.24716272  0.19933015  0.63811040    -0.98000
O101        O  0.23884782  0.15454307  0.72179382    -0.55220
O102        O  0.22709286  0.16757844  0.60130497    -0.74570
C103        C  0.21787150  0.16933797  0.55437560     0.97770
O104        O  0.15352318  0.16613129  0.55248620    -0.63390
O105        O  0.16113992  0.14634861  0.84868399    -0.58200
O106        O  0.16315391  0.14767719  0.62819015    -0.94880
O107        O  0.16730389  0.13491057  0.71798108    -0.93310
O108        O  0.13435766  0.18301112  0.85577714    -0.93660
O109        O  0.12080050  0.18161815  0.74548682    -0.92450
C110        C  0.16132259  0.13453377  0.66533984     1.16610
H111        H  0.16934051  0.18092744  0.86774853     0.32560
H112        H  0.14945687  0.20883122  0.65185393     0.43410
H113        H  0.20081822  0.15097105  0.66450011     0.36930
H114        H  0.22252218  0.21575628  0.72854096     0.33410
H115        H  0.11180740  0.21421925  0.77056912     0.25200
H116        H  0.18187152  0.25795769  0.60546903     0.31140
H117        H  0.25623007  0.18980391  0.62562276     0.37050
H118        H  0.12841468  0.19300003  0.87823905     0.31510
H119        H  0.15970002  0.13306708  0.84098141     0.30390
H120        H  0.19152372  0.11965694  0.80932134     0.32070
H121        H  0.24666605  0.15098443  0.68816610     0.31030
H122        H  0.12187874  0.18019179  0.70288186     0.35030
H123        H  0.14177990  0.17339246  0.55556561     0.27770
H124        H  0.21419390  0.22619760  0.92120900     0.32000
H125        H  0.26056941  0.18290194  0.73613910     0.34850
H126        H  0.16786561  0.14676304  0.88633077     0.27460
H127        H  0.15892555  0.16961333  0.51432828     0.40330
H128        H  0.15558767  0.25061611  0.71006959     0.30390
H129        H  0.12537505  0.23071965  0.76172080     0.38000
H130        H  0.22895383  0.14502919  0.72397539     0.29850
H131        H  0.17999206  0.26515604  0.66891480     0.29920
H132        H  0.23091790  0.21452326  0.89655278     0.30180
Zr133      Zr  0.33089765  0.31337082  0.82755009     2.17510
O134        O  0.36047668  0.32275487  0.87144125    -0.52170
O135        O  0.30863589  0.31898237  0.90767209    -0.75380
O136        O  0.32803563  0.34612041  0.83418407    -0.82160
O137        O  0.34634068  0.26837105  0.85159750    -0.83910
O138        O  0.33177383  0.35757424  0.74409802    -0.79530
O139        O  0.33663420  0.29124881  0.90749718    -0.91170
O140        O  0.28398200  0.32763395  0.85417154    -0.77130
O141        O  0.30422725  0.32743149  0.78171331    -0.86620
O142        O  0.30861516  0.28890497  0.82669544    -0.86310
O143        O  0.33945202  0.32233013  0.72801458    -0.73070
O144        O  0.34649664  0.29079847  0.76686829    -0.85200
Zr145      Zr  0.30129663  0.28811222  0.63354731     2.26420
Zr146      Zr  0.31198960  0.33676354  0.68411425     2.06270
Zr147      Zr  0.32493670  0.26605709  0.76993861     2.10050
Zr148      Zr  0.28162295  0.30382467  0.78377567     1.78760
O149        O  0.35163798  0.24979320  0.72838589    -0.94010
O150        O  0.25598520  0.32528736  0.76348314    -0.41810
O151        O  0.29620410  0.27967502  0.73248695    -0.78450
O152        O  0.28849104  0.31306414  0.68738205    -0.97130
O153        O  0.32391828  0.31213924  0.62569837    -0.90440
O154        O  0.32936939  0.27483568  0.67254961    -0.93280
C155        C  0.29179669  0.32525514  0.90310641     1.00470
C156        C  0.34218578  0.27459279  0.90132704     1.13400
C157        C  0.33552598  0.35756661  0.79911841     1.04180
O158        O  0.29159523  0.36285520  0.70427137    -0.95430
O159        O  0.28907716  0.33911703  0.59984831    -0.91180
O160        O  0.28840122  0.31020884  0.56454421    -0.84320
C161        C  0.28306278  0.32705715  0.56271581     1.10820
O162        O  0.38107495  0.31459055  0.68774635    -0.97410
Zr163      Zr  0.35174253  0.29881750  0.66526599     1.88940
O164        O  0.32019448  0.27898099  0.55143016    -0.74060
O165        O  0.32951131  0.35447195  0.61222742    -0.53320
O166        O  0.35804228  0.31946537  0.58371932    -0.98000
O167        O  0.37996616  0.27976810  0.67121424    -0.55220
O168        O  0.35013268  0.27657141  0.58451003    -0.74570
C169        C  0.33652497  0.27148507  0.55117591     0.97770
O170        O  0.26976250  0.27960329  0.60196838    -0.63390
O171        O  0.32489600  0.23649491  0.82241104    -0.58200
O172        O  0.29602058  0.25499856  0.64280970    -0.94880
O173        O  0.30610551  0.24253200  0.72548450    -0.93310
O174        O  0.26618172  0.28796674  0.86377760    -0.93660
O175        O  0.25245003  0.29005506  0.75043336    -0.92450
C176        C  0.29279727  0.24661437  0.69102947     1.16610
H177        H  0.30551857  0.28437169  0.86505103     0.32560
H178        H  0.27671663  0.31707164  0.67071183     0.43410
H179        H  0.33209480  0.26328299  0.65426738     0.36930
H180        H  0.34972054  0.33092559  0.73045006     0.33410
H181        H  0.24935288  0.32661421  0.80100481     0.25200
H182        H  0.32644261  0.36745089  0.62082150     0.31140
H183        H  0.36491578  0.31179664  0.55544388     0.37050
H184        H  0.25512524  0.29572557  0.87275432     0.31510
H185        H  0.33752672  0.23542099  0.84015158     0.30390
H186        H  0.36112510  0.24930954  0.75985706     0.32070
H187        H  0.38683640  0.28236280  0.63466854     0.31030
H188        H  0.25056021  0.29473968  0.71034716     0.35030
H189        H  0.26368287  0.27606875  0.63876607     0.27770
H190        H  0.35680212  0.33097065  0.90356206     0.32000
H191        H  0.38738494  0.31682631  0.65004594     0.34850
H192        H  0.32504640  0.22655891  0.79335990     0.27460
H193        H  0.26294747  0.29108143  0.59224946     0.40330
H194        H  0.29075218  0.36317723  0.74717883     0.30390
H195        H  0.26219520  0.33730279  0.75703619     0.38000
H196        H  0.37553796  0.26698796  0.66662976     0.29850
H197        H  0.34281816  0.35305412  0.62408167     0.29920
H198        H  0.36635253  0.33099212  0.84222447     0.30180
Zr199      Zr  0.18767915  0.32338075  0.11971977     2.17510
O200        O  0.16522813  0.33259078  0.04453839    -0.52170
O201        O  0.21402012  0.32728026  0.05077294    -0.75380
O202        O  0.18162508  0.35628798  0.11872263    -0.82160
O203        O  0.18163476  0.27206170  0.09386330    -0.83910
O204        O  0.17343376  0.36467924  0.20947432    -0.79530
O205        O  0.17430457  0.29985704  0.05409333    -0.91170
O206        O  0.23597269  0.33887065  0.10949212    -0.77130
O207        O  0.20932094  0.33957084  0.18112753    -0.86620
O208        O  0.21359945  0.30283254  0.13178152    -0.86310
O209        O  0.17224369  0.32943899  0.21212508    -0.73070
O210        O  0.17400372  0.29739066  0.16886241    -0.85200
Zr211      Zr  0.20726456  0.29818897  0.32885466     2.26420
Zr212      Zr  0.19450231  0.34596151  0.27337256     2.06270
Zr213      Zr  0.20006155  0.27703094  0.17972486     2.10050
Zr214      Zr  0.23502940  0.31890966  0.19298654     1.78760
O215        O  0.18509236  0.24694784  0.17823535    -0.94010
O216        O  0.25362569  0.34544415  0.22169882    -0.41810
O217        O  0.22264743  0.29192313  0.23875028    -0.78450
O218        O  0.22047989  0.32492368  0.28310987    -0.97130
O219        O  0.18166576  0.31917950  0.32070599    -0.90440
O220        O  0.18532086  0.28300259  0.26851770    -0.93280
C221        C  0.23059098  0.33367887  0.05976527     1.00470
C222        C  0.17381512  0.28207513  0.05476239     1.13400
C223        C  0.17109044  0.36516739  0.15363661     1.04180
O224        O  0.21109332  0.37503291  0.26269501    -0.95430
O225        O  0.21421240  0.34764201  0.36597726    -0.91180
O226        O  0.20729803  0.32038548  0.40701169    -0.84320
C227        C  0.21680197  0.33533619  0.40680551     1.10820
O228        O  0.13031823  0.31451628  0.21862038    -0.97410
Zr229      Zr  0.15962141  0.30331988  0.26142304     1.88940
O230        O  0.18519907  0.28083113  0.38896378    -0.74060
O231        O  0.17304531  0.36023302  0.34185085    -0.53320
O232        O  0.14242702  0.32139330  0.33239984    -0.98000
O233        O  0.13907604  0.27905982  0.22647817    -0.55220
O234        O  0.15680458  0.28165208  0.34297617    -0.74570
C235        C  0.16809631  0.27549294  0.38226857     0.97770
O236        O  0.23939075  0.29315534  0.36256334    -0.63390
O237        O  0.22481024  0.26397384  0.11974419    -0.58200
O238        O  0.21683511  0.26701606  0.34327779    -0.94880
O239        O  0.21276617  0.25614647  0.25152445    -0.93310
O240        O  0.25713180  0.30077177  0.13674844    -0.93660
O241        O  0.26440171  0.31051010  0.24124690    -0.92450
C242        C  0.21825512  0.25466371  0.30456172     1.16610
H243        H  0.21930398  0.29873630  0.09614773     0.32560
H244        H  0.23090123  0.32948869  0.30542192     0.43410
H245        H  0.18181129  0.27103137  0.28275551     0.36930
H246        H  0.16075675  0.33606093  0.20447091     0.33410
H247        H  0.26293778  0.34710286  0.19016714     0.25200
H248        H  0.17511587  0.37360490  0.33662297     0.31140
H249        H  0.13425218  0.31242140  0.35274769     0.37050
H250        H  0.26738853  0.30941362  0.12670339     0.31510
H251        H  0.22470695  0.25069292  0.12951951     0.30390
H252        H  0.19370458  0.23900173  0.15584974     0.32070
H253        H  0.13135533  0.27541910  0.26041261     0.31030
H254        H  0.26387222  0.31628536  0.27995213     0.35030
H255        H  0.24565257  0.28595163  0.33189092     0.27770
H256        H  0.17120793  0.34276484  0.02251257     0.32000
H257        H  0.12026235  0.31056924  0.24565404     0.34850
H258        H  0.21986036  0.26463074  0.07956107     0.27460
H259        H  0.24541830  0.30533430  0.35877590     0.40330
H260        H  0.21205030  0.37703684  0.22019782     0.30390
H261        H  0.24499084  0.35606839  0.21740319     0.38000
H262        H  0.14757313  0.26846854  0.22016686     0.29850
H263        H  0.16039332  0.35806245  0.32536722     0.29920
H264        H  0.15454683  0.33828508  0.06527378     0.30180
Zr265      Zr  0.57343602  0.92615333  0.57945198     2.17510
O266        O  0.57626100  0.89793892  0.63697866    -0.52170
O267        O  0.58329714  0.94756596  0.65630516    -0.75380
O268        O  0.60574454  0.91566945  0.58674511    -0.82160
O269        O  0.52231248  0.91896345  0.57957547    -0.83910
O270        O  0.62054362  0.92262034  0.50151218    -0.79530
O271        O  0.54597790  0.91892913  0.64358562    -0.91170
O272        O  0.59825185  0.96549952  0.59435127    -0.77130
O273        O  0.59270462  0.94846346  0.53008180    -0.86620
O274        O  0.55534030  0.95380085  0.57663924    -0.86310
O275        O  0.58081623  0.91527084  0.48192984    -0.73070
O276        O  0.54695981  0.91807987  0.52025601    -0.85200
Zr277      Zr  0.55311871  0.95827992  0.37477727     2.26420
Zr278      Zr  0.59923278  0.93863319  0.43310157     2.06270
Zr279      Zr  0.52854609  0.94554974  0.51977476     2.10050
Zr280      Zr  0.57478856  0.97577784  0.52743010     1.78760
O281        O  0.49551519  0.93675388  0.51843047    -0.94010
O282        O  0.60204703  0.99462149  0.50230538    -0.41810
O283        O  0.54772402  0.96833381  0.47279330    -0.78450
O284        O  0.58043348  0.96615160  0.43103996    -0.97130
O285        O  0.57229305  0.93123621  0.37454193    -0.90440
O286        O  0.53484695  0.93518126  0.42392042    -0.93280
C287        C  0.59320347  0.96192857  0.64581081     1.00470
C288        C  0.52851195  0.91605732  0.63086715     1.13400
C289        C  0.62014772  0.91556201  0.55322481     1.04180
O290        O  0.63113440  0.95063708  0.43311728    -0.95430
O291        O  0.60712793  0.96021597  0.35211131    -0.91180
O292        O  0.57906751  0.97009544  0.31566337    -0.84320
C293        C  0.59712191  0.97005580  0.31647651     1.10820
O294        O  0.56284404  0.87714537  0.45156017    -0.97410
Zr295      Zr  0.55382685  0.90831339  0.42275444     1.88940
O296        O  0.53451715  0.94001566  0.30768691    -0.74060
O297        O  0.60915329  0.91465090  0.36676006    -0.53320
O298        O  0.57187061  0.89380516  0.34579380    -0.98000
O299        O  0.52710353  0.88872992  0.44631807    -0.55220
O300        O  0.53259269  0.91036012  0.33875156    -0.74570
C301        C  0.52756657  0.92376777  0.30526416     0.97770
O302        O  0.54291404  0.97805896  0.29423289    -0.63390
O303        O  0.51707725  0.96563598  0.59656495    -0.58200
O304        O  0.52958800  0.98141219  0.39673533    -0.94880
O305        O  0.51200732  0.96124265  0.44222391    -0.93310
O306        O  0.55875908  0.99199267  0.60533632    -0.93660
O307        O  0.57084184  0.00856000  0.50897269    -0.92450
C308        C  0.51603475  0.97788076  0.43129838     1.16610
H309        H  0.55195602  0.95758519  0.61529854     0.32560
H310        H  0.58669847  0.97677447  0.41556670     0.43410
H311        H  0.52263981  0.93281127  0.40753101     0.36930
H312        H  0.58824094  0.90417497  0.48540170     0.33410
H313        H  0.60850890  0.99746482  0.53915340     0.25200
H314        H  0.62280067  0.91670890  0.36164462     0.31140
H315        H  0.56245719  0.88719512  0.32220630     0.37050
H316        H  0.54552258  0.99293868  0.59234307     0.31510
H317        H  0.50322307  0.96509187  0.59441043     0.30390
H318        H  0.49100030  0.93783100  0.55889073     0.32070
H319        H  0.52408386  0.88225792  0.40984228     0.31030
H320        H  0.56976599  0.00970625  0.46620135     0.35030
H321        H  0.54983718  0.98977310  0.29844044     0.27770
H322        H  0.58534205  0.90074573  0.66828134     0.32000
H323        H  0.55809940  0.86905186  0.42048721     0.34850
H324        H  0.52000430  0.95899875  0.63322993     0.27460
H325        H  0.54801572  0.97244332  0.25852309     0.40330
H326        H  0.63185026  0.95828594  0.46839723     0.30390
H327        H  0.61077435  0.98611606  0.48254187     0.38000
H328        H  0.51651228  0.89739733  0.45180517     0.29850
H329        H  0.60832740  0.90313211  0.38985933     0.29920
H330        H  0.58280775  0.88904297  0.61170220     0.30180
Zr331      Zr  0.58422018  0.06046049  0.87059194     2.17510
O332        O  0.58882104  0.08417516  0.79613497    -0.52170
O333        O  0.59227013  0.03561864  0.80286427    -0.75380
O334        O  0.61568884  0.07316559  0.86755705    -0.82160
O335        O  0.53614364  0.07277196  0.86873951    -0.83910
O336        O  0.62956007  0.07005466  0.95666528    -0.79530
O337        O  0.55828796  0.06798408  0.80228167    -0.91170
O338        O  0.60501730  0.01568509  0.86475748    -0.77130
O339        O  0.60169109  0.03819627  0.92623598    -0.86620
O340        O  0.56374336  0.03462230  0.87954164    -0.86310
O341        O  0.59091582  0.07371449  0.96507595    -0.73070
O342        O  0.55811270  0.07228428  0.92494476    -0.85200
Zr343      Zr  0.56192061  0.03584100  0.08384115     2.26420
Zr344      Zr  0.60882115  0.05114328  0.01937833     2.06270
Zr345      Zr  0.53778814  0.04641956  0.93286651     2.10050
Zr346      Zr  0.58113029  0.01262442  0.93666361     1.78760
O347        O  0.50513584  0.05608480  0.93225345    -0.94010
O348        O  0.60574680  0.99105650  0.96598111    -0.41810
O349        O  0.55452931  0.02342666  0.98807137    -0.78450
O350        O  0.58836140  0.02492984  0.02912739    -0.97130
O351        O  0.58229606  0.06175872  0.07469241    -0.90440
O352        O  0.54370637  0.05883120  0.02779487    -0.93280
C353        C  0.60027319  0.02009684  0.81347331     1.00470
C354        C  0.54136149  0.07242671  0.81582271     1.13400
C355        C  0.62894501  0.07628728  0.90387866     1.04180
O356        O  0.63899838  0.03568557  0.00934746    -0.95430
O357        O  0.61480548  0.03120925  0.10567089    -0.91180
O358        O  0.58703499  0.03101748  0.15401080    -0.84320
C359        C  0.60425657  0.02611745  0.14855507     1.10820
O360        O  0.57355333  0.11451269  0.98512066    -0.97410
Zr361      Zr  0.56452530  0.08409893  0.02077681     1.88940
O362        O  0.54884444  0.05729434  0.15190567    -0.74060
O363        O  0.62179529  0.07310752  0.08762779    -0.53320
O364        O  0.58382207  0.10056777  0.09049281    -0.98000
O365        O  0.53819782  0.10347443  0.99050581    -0.55220
O366        O  0.54412051  0.08486725  0.10687480    -0.74570
C367        C  0.54073479  0.07297228  0.14722567     0.97770
O368        O  0.55837499  0.00720624  0.13914038    -0.63390
O369        O  0.52080916  0.02407652  0.87496231    -0.58200
O370        O  0.53202774  0.02015379  0.10578846    -0.94880
O371        O  0.53492270  0.03437381  0.02725689    -0.93310
O372        O  0.56448025  0.99528777  0.86254297    -0.93660
O373        O  0.57175783  0.98291212  0.97657702    -0.92450
C374        C  0.52482748  0.02396657  0.05732413     1.16610
H375        H  0.55975161  0.02998762  0.84234517     0.32560
H376        H  0.59393820  0.01456946  0.04902538     0.43410
H377        H  0.53197820  0.06369298  0.04316897     0.36930
H378        H  0.59819612  0.08470256  0.95943296     0.33410
H379        H  0.60715011  0.98243783  0.93328829     0.25200
H380        H  0.63557972  0.07165293  0.08400963     0.31140
H381        H  0.57478082  0.10762706  0.11421002     0.37050
H382        H  0.57058022  0.98304242  0.86217069     0.31510
H383        H  0.52419962  0.02703989  0.83425518     0.30390
H384        H  0.50488867  0.06723392  0.95657286     0.32070
H385        H  0.53424987  0.10999723  0.02603419     0.31030
H386        H  0.57212835  0.98457043  0.01921946     0.35030
H387        H  0.56966359  0.99978279  0.13006843     0.27770
H388        H  0.59947307  0.07999860  0.77191831     0.32000
H389        H  0.56849251  0.12337482  0.01354601     0.34850
H390        H  0.52726054  0.01226004  0.88324233     0.27460
H391        H  0.55973157  0.01043322  0.18064915     0.40330
H392        H  0.63786150  0.02861918  0.97297568     0.30390
H393        H  0.61745129  0.99838558  0.96556639     0.38000
H394        H  0.52785365  0.09475655  0.98272236     0.29850
H395        H  0.61909641  0.08529846  0.07003138     0.29920
H396        H  0.59342203  0.09520327  0.81662251     0.30180
Zr397      Zr  0.42889621  0.93570156  0.06404978     2.17510
O398        O  0.40299805  0.93193790  0.13250781    -0.52170
O399        O  0.45300885  0.92734780  0.13655551    -0.75380
O400        O  0.41727422  0.90442753  0.07001579    -0.82160
O401        O  0.41787828  0.98508485  0.06735903    -0.83910
O402        O  0.42054282  0.89066476  0.98179089    -0.79530
O403        O  0.42284686  0.96184274  0.13000136    -0.91170
O404        O  0.47810178  0.91842480  0.08425528    -0.77130
O405        O  0.45197936  0.91846064  0.01179457    -0.86620
O406        O  0.45490299  0.95587075  0.05431272    -0.86310
O407        O  0.41554276  0.92781214  0.97053119    -0.73070
O408        O  0.41657723  0.96097497  0.00787722    -0.85200
Zr409      Zr  0.45311506  0.95825733  0.85337079     2.26420
Zr410      Zr  0.43932665  0.91120810  0.91772773     2.06270
Zr411      Zr  0.44278301  0.98133541  0.99911456     2.10050
Zr412      Zr  0.47769760  0.93884316  0.00173583     1.78760
O413        O  0.43072218  0.01275191  0.99970909    -0.94010
O414        O  0.49817525  0.91336067  0.97493527    -0.41810
O415        O  0.46652603  0.96475676  0.94743759    -0.78450
O416        O  0.46514904  0.93228001  0.90886447    -0.97130
O417        O  0.42765455  0.93693252  0.86111191    -0.90440
O418        O  0.42950889  0.97384018  0.90785558    -0.93280
C419        C  0.46974999  0.92071563  0.13250400     1.00470
C420        C  0.41859829  0.97878011  0.11900351     1.13400
C421        C  0.41445801  0.89114329  0.03476966     1.04180
O422        O  0.45635975  0.88236353  0.93052958    -0.95430
O423        O  0.46041840  0.90588599  0.83301741    -0.91180
O424        O  0.46585007  0.93408315  0.79209792    -0.84320
C425        C  0.46820396  0.91657467  0.79463566     1.10820
O426        O  0.37417989  0.94130111  0.95030145    -0.97410
Zr427      Zr  0.40405157  0.95310964  0.91409123     1.88940
O428        O  0.43061206  0.97604758  0.79305942    -0.74060
O429        O  0.41757708  0.89716149  0.84973564    -0.53320
O430        O  0.38938139  0.93373795  0.84123518    -0.98000
O431        O  0.38186142  0.97653624  0.94576676    -0.55220
O432        O  0.40111704  0.97374831  0.83033160    -0.74570
C433        C  0.41304984  0.98048115  0.79422887     0.97770
O434        O  0.46953489  0.96626335  0.76362109    -0.63390
O435        O  0.46561148  0.99354299  0.06811048    -0.58200
O436        O  0.47470665  0.98365000  0.87011403    -0.94880
O437        O  0.45342912  0.99942431  0.91726269    -0.93310
O438        O  0.49528881  0.95700878  0.07140717    -0.93660
O439        O  0.50864955  0.94649336  0.96385003    -0.92450
C440        C  0.47035543  0.99727914  0.90212639     1.16610
H441        H  0.45950734  0.95947225  0.09196846     0.32560
H442        H  0.47625990  0.92721542  0.89138336     0.43410
H443        H  0.42533047  0.98545475  0.89255307     0.36930
H444        H  0.40457235  0.92032065  0.97645151     0.33410
H445        H  0.50614050  0.91102791  0.00955490     0.25200
H446        H  0.42013738  0.88380661  0.85322470     0.31140
H447        H  0.38091344  0.94207033  0.81914563     0.37050
H448        H  0.50330712  0.94799060  0.09240658     0.31510
H449        H  0.46510822  0.00705050  0.06379801     0.30390
H450        H  0.44002195  0.02022115  0.02082516     0.32070
H451        H  0.37563429  0.98107002  0.90989605     0.31030
H452        H  0.50702744  0.94673396  0.92111379     0.35030
H453        H  0.46658751  0.97939657  0.75625198     0.27770
H454        H  0.40701684  0.92220440  0.16026488     0.32000
H455        H  0.36468217  0.94485988  0.92076100     0.34850
H456        H  0.46001305  0.99126951  0.10685277     0.27460
H457        H  0.48308017  0.96611082  0.77362261     0.40330
H458        H  0.45950565  0.88182842  0.97242657     0.30390
H459        H  0.48975557  0.90256674  0.97312790     0.38000
H460        H  0.38982276  0.98688941  0.95852982     0.29850
H461        H  0.40506267  0.89878980  0.86770702     0.29920
H462        H  0.39254063  0.92649970  0.11009598     0.30180
Zr463      Zr  0.45125609  0.04877404  0.59427023     2.17510
O464        O  0.44754310  0.02309859  0.66256321    -0.52170
O465        O  0.46493324  0.07051401  0.65989106    -0.75380
O466        O  0.48016945  0.03282977  0.61598662    -0.82160
O467        O  0.40008334  0.04582451  0.59362529    -0.83910
O468        O  0.49410495  0.04916130  0.54808849    -0.79530
O469        O  0.42390421  0.04972747  0.65577349    -0.91170
O470        O  0.48091110  0.08992213  0.60306018    -0.77130
O471        O  0.47326927  0.06682721  0.54008224    -0.86620
O472        O  0.43526779  0.07710115  0.57562815    -0.86310
O473        O  0.45893683  0.03220813  0.50642620    -0.73070
O474        O  0.42442180  0.04063182  0.53734650    -0.85200
Zr475      Zr  0.43768598  0.07035774  0.37616624     2.26420
Zr476      Zr  0.48007398  0.05141352  0.45163709     2.06270
Zr477      Zr  0.40849686  0.06881630  0.51743392     2.10050
Zr478      Zr  0.45786442  0.09491118  0.52330402     1.78760
O479        O  0.37617137  0.06049160  0.49523317    -0.94010
O480        O  0.48532639  0.11207719  0.49090017    -0.41810
O481        O  0.43108345  0.08674267  0.46468689    -0.78450
O482        O  0.46459370  0.08018356  0.43197621    -0.97130
O483        O  0.45337234  0.04236135  0.39613265    -0.90440
O484        O  0.41549753  0.05243852  0.42971078    -0.93280
C485        C  0.47930728  0.08048048  0.65050866     1.00470
C486        C  0.40844070  0.04205933  0.64208789     1.13400
C487        C  0.49332608  0.03454529  0.57910285     1.04180
O488        O  0.51395395  0.05320500  0.43957297    -0.95430
O489        O  0.49119221  0.06607149  0.36374352    -0.91180
O490        O  0.46502949  0.07404112  0.31282557    -0.84320
C491        C  0.48285775  0.07180516  0.31773792     1.10820
O492        O  0.43302690  0.99762026  0.51601824    -0.97410
Zr493      Zr  0.43179093  0.02446681  0.45179153     1.88940
O494        O  0.42625762  0.04689299  0.30659770    -0.74060
O495        O  0.48654808  0.02255108  0.40326572    -0.53320
O496        O  0.44929158  0.99946282  0.40729139    -0.98000
O497        O  0.40004032  0.01209171  0.45779931    -0.55220
O498        O  0.42124969  0.02032419  0.35542452    -0.74570
C499        C  0.42122932  0.02983945  0.30885604     0.97770
O500        O  0.43199200  0.09133958  0.29452487    -0.63390
O501        O  0.39559846  0.09011475  0.58814557    -0.58200
O502        O  0.41206735  0.09164653  0.36743082    -0.94880
O503        O  0.39537282  0.09240759  0.45129678    -0.93310
O504        O  0.44479789  0.11526532  0.59643786    -0.93660
O505        O  0.45050612  0.12546615  0.48540168    -0.92450
C506        C  0.39907072  0.09821745  0.39943102     1.16610
H507        H  0.43156410  0.08288243  0.61143636     0.32560
H508        H  0.47210060  0.08889331  0.41038209     0.43410
H509        H  0.40423080  0.05042922  0.40722905     0.36930
H510        H  0.46473332  0.02066975  0.51600417     0.33410
H511        H  0.48879972  0.11974719  0.52454342     0.25200
H512        H  0.50038419  0.02143579  0.40207485     0.31140
H513        H  0.43967079  0.99063305  0.39396702     0.37050
H514        H  0.45589086  0.12016519  0.61711354     0.31510
H515        H  0.38260501  0.09253763  0.57464712     0.30390
H516        H  0.36944733  0.06146203  0.53270478     0.32070
H517        H  0.40007028  0.00124487  0.43212527     0.31030
H518        H  0.44500159  0.12325545  0.44656835     0.35030
H519        H  0.44197971  0.10077968  0.29651903     0.27770
H520        H  0.45680429  0.02494121  0.69408176     0.32000
H521        H  0.42637883  0.98770865  0.49523958     0.34850
H522        H  0.39404477  0.08268304  0.62406895     0.27460
H523        H  0.43478606  0.08423001  0.25908769     0.40330
H524        H  0.51733932  0.06546021  0.45472999     0.30390
H525        H  0.49545903  0.10275055  0.48868769     0.38000
H526        H  0.39188725  0.02116352  0.43761753     0.29850
H527        H  0.48219735  0.01289948  0.43030598     0.29920
H528        H  0.45184166  0.01200456  0.64176335     0.30180
Zr529      Zr  0.94266754  0.91700074  0.36726279     2.17510
O530        O  0.94062592  0.89340921  0.29296924    -0.52170
O531        O  0.93237373  0.93971534  0.29459112    -0.75380
O532        O  0.91219367  0.90235680  0.36526114    -0.82160
O533        O  0.99480056  0.91340973  0.36253987    -0.83910
O534        O  0.89614812  0.90689162  0.44961232    -0.79530
O535        O  0.97003348  0.91011190  0.30318968    -0.91170
O536        O  0.91667426  0.95961596  0.34898210    -0.77130
O537        O  0.92178734  0.93638481  0.42136717    -0.86620
O538        O  0.95824156  0.94586834  0.37429273    -0.86310
O539        O  0.93733011  0.90260444  0.46162592    -0.73070
O540        O  0.97049960  0.90953724  0.42085741    -0.85200
Zr541      Zr  0.96254519  0.94470468  0.57315231     2.26420
Zr542      Zr  0.91734520  0.92303297  0.51622980     2.06270
Zr543      Zr  0.98647337  0.93825815  0.42553246     2.10050
Zr544      Zr  0.93739461  0.96495059  0.42895340     1.78760
O545        O  0.02023392  0.93303510  0.41739239    -0.94010
O546        O  0.90810395  0.98053029  0.45312055    -0.41810
O547        O  0.96593281  0.95833264  0.47815721    -0.78450
O548        O  0.93348360  0.95186897  0.52332263    -0.97130
O549        O  0.94574077  0.91638915  0.56920806    -0.90440
O550        O  0.98243447  0.92446486  0.51911788    -0.93280
C551        C  0.92318431  0.95477613  0.30020467     1.00470
C552        C  0.98784011  0.90880888  0.31369531     1.13400
C553        C  0.89775468  0.90038681  0.39796852     1.04180
O554        O  0.88526389  0.93464772  0.52088734    -0.95430
O555        O  0.90984173  0.93979289  0.60652480    -0.91180
O556        O  0.93800651  0.94866937  0.64350880    -0.84320
C557        C  0.92010385  0.94755501  0.64556812     1.10820
O558        O  0.96017587  0.86565821  0.47726170    -0.97410
Zr559      Zr  0.96562225  0.89633813  0.51562500     1.88940
O560        O  0.98372540  0.92692796  0.63445088    -0.74060
O561        O  0.90922167  0.89644192  0.57599105    -0.53320
O562        O  0.94903397  0.87763138  0.58728019    -0.98000
O563        O  0.99431749  0.88031546  0.48792374    -0.55220
O564        O  0.98596492  0.89766022  0.60124433    -0.74570
C565        C  0.99046636  0.91057878  0.63627726     0.97770
O566        O  0.96510670  0.96486235  0.65710183    -0.63390
O567        O  0.99467311  0.96091037  0.35060958    -0.58200
O568        O  0.98453806  0.96980591  0.55898885    -0.94880
O569        O  0.00260787  0.95251573  0.50562922    -0.93310
O570        O  0.95227495  0.98598117  0.36013602    -0.93660
O571        O  0.93880328  0.99567223  0.46960212    -0.92450
C572        C  0.99748110  0.96842754  0.52115067     1.16610
H573        H  0.96102317  0.95115317  0.33673727     0.32560
H574        H  0.92639528  0.96102121  0.54403797     0.43410
H575        H  0.99489197  0.92243899  0.53445894     0.36930
H576        H  0.93100898  0.89100905  0.45653111     0.33410
H577        H  0.90457388  0.98745141  0.41746290     0.25200
H578        H  0.89592867  0.89852486  0.58680093     0.31140
H579        H  0.95900855  0.87068679  0.60805966     0.37050
H580        H  0.94178154  0.99331304  0.34357595     0.31510
H581        H  0.00852125  0.96178592  0.35123661     0.30390
H582        H  0.02337715  0.93419875  0.37563681     0.32070
H583        H  0.99826306  0.87338714  0.52313104     0.31030
H584        H  0.93915244  0.99366485  0.51220316     0.35030
H585        H  0.97855933  0.96486858  0.66815245     0.27770
H586        H  0.92846529  0.89519283  0.27271616     0.32000
H587        H  0.96558250  0.85700041  0.50627746     0.34850
H588        H  0.99208312  0.95471229  0.31334947     0.27460
H589        H  0.96249746  0.97747949  0.64252260     0.40330
H590        H  0.88322744  0.94100760  0.48317853     0.30390
H591        H  0.89869220  0.97057176  0.45602046     0.38000
H592        H  0.00381246  0.89016250  0.48359338     0.29850
H593        H  0.90881039  0.88605369  0.54853536     0.29920
H594        H  0.93948636  0.88162461  0.31444533     0.30180
Zr595      Zr  0.94769005  0.03659037  0.84794530     2.17510
O596        O  0.96737212  0.03650870  0.76113117    -0.52170
O597        O  0.92893029  0.01373860  0.79623414    -0.75380
O598        O  0.97156664  0.01258213  0.85080575    -0.82160
O599        O  0.95101115  0.08674752  0.83279335    -0.83910
O600        O  0.95559040  0.99627850  0.91386460    -0.79530
O601        O  0.94715862  0.06158865  0.77877100    -0.91170
O602        O  0.90062107  0.01012963  0.84016991    -0.77130
O603        O  0.92812034  0.01744400  0.90579477    -0.86620
O604        O  0.91873116  0.05321451  0.85693677    -0.86310
O605        O  0.96426698  0.03439746  0.93996415    -0.73070
O606        O  0.95517173  0.06485652  0.89741957    -0.85200
Zr607      Zr  0.92274692  0.05547341  0.05881740     2.26420
Zr608      Zr  0.94463048  0.01411418  0.99552742     2.06270
Zr609      Zr  0.92626793  0.08103148  0.90848443     2.10050
Zr610      Zr  0.89932435  0.03365084  0.91456531     1.78760
O611        O  0.93430340  0.11346156  0.91600161    -0.94010
O612        O  0.88071512  0.00804037  0.95163753    -0.41810
O613        O  0.90718213  0.06084599  0.96658118    -0.78450
O614        O  0.91434153  0.02841211  0.00648705    -0.97130
O615        O  0.95233813  0.04140051  0.04617080    -0.90440
O616        O  0.94088060  0.07689206  0.00163567    -0.93280
C617        C  0.91297117  0.00569098  0.80227311     1.00470
C618        C  0.95481296  0.07716976  0.78712260     1.13400
C619        C  0.97127640  0.00021352  0.89036733     1.04180
O620        O  0.94470672  0.98142288  0.01936672    -0.95430
O621        O  0.92719539  0.00388830  0.07729735    -0.91180
O622        O  0.92264999  0.02957631  0.13047443    -0.84320
C623        C  0.92396406  0.01192955  0.12518398     1.10820
O624        O  0.00072758  0.06036869  0.94058187    -0.97410
Zr625      Zr  0.97033823  0.06241976  0.98913486     1.88940
O626        O  0.94598256  0.06480454  0.13144487    -0.74060
O627        O  0.97173292  0.01534991  0.05960762    -0.53320
O628        O  0.99565765  0.04909593  0.04741469    -0.98000
O629        O  0.98080130  0.09298635  0.95954471    -0.55220
O630        O  0.96933343  0.07850070  0.08038093    -0.74570
C631        C  0.96164660  0.07351367  0.12804255     0.97770
O632        O  0.89433729  0.05674662  0.11815733    -0.63390
O633        O  0.90411198  0.09130165  0.83421353    -0.58200
O634        O  0.91004302  0.08575785  0.06786358    -0.94880
O635        O  0.90269918  0.09456954  0.97568070    -0.93310
O636        O  0.87929777  0.04690367  0.83904139    -0.93660
O637        O  0.86893500  0.04276531  0.95357748    -0.92450
C638        C  0.90009117  0.09487511  0.03136103     1.16610
H639        H  0.91329216  0.05575609  0.81923828     0.32560
H640        H  0.90526702  0.02147359  0.02868844     0.43410
H641        H  0.94216240  0.08865500  0.02034971     0.36930
H642        H  0.97688649  0.02988698  0.93652684     0.33410
H643        H  0.87200312  0.00499330  0.91958249     0.25200
H644        H  0.97210511  0.00320773  0.07914294     0.31140
H645        H  0.00232137  0.05972802  0.06428075     0.37050
H646        H  0.87054451  0.03688966  0.82869891     0.31510
H647        H  0.89696393  0.10138960  0.85254959     0.30390
H648        H  0.92274612  0.12015104  0.90434426     0.32070
H649        H  0.98780383  0.09768915  0.99347673     0.31030
H650        H  0.87157697  0.04624003  0.99425853     0.35030
H651        H  0.88468826  0.06269898  0.09323973     0.27770
H652        H  0.96722999  0.02374603  0.74654730     0.32000
H653        H  0.00891903  0.06954352  0.95944556     0.34850
H654        H  0.91201344  0.09750632  0.80461573     0.27460
H655        H  0.88998889  0.04386124  0.12117008     0.40330
H656        H  0.93434425  0.97623028  0.99596633     0.30390
H657        H  0.88961136  0.99755574  0.95342183     0.38000
H658        H  0.96922816  0.10054647  0.95795268     0.29850
H659        H  0.98282568  0.01575831  0.03396333     0.29920
H660        H  0.98037519  0.03855119  0.77494935     0.30180
Zr661      Zr  0.08407180  0.93539276  0.88201518     2.17510
O662        O  0.11224686  0.93459304  0.82193224    -0.52170
O663        O  0.06088060  0.92578620  0.80899565    -0.75380
O664        O  0.09442195  0.90419186  0.86664225    -0.82160
O665        O  0.09081786  0.98440862  0.87551500    -0.83910
O666        O  0.09011342  0.88849122  0.95173519    -0.79530
O667        O  0.08524727  0.96148150  0.81376943    -0.91170
O668        O  0.03860274  0.91360220  0.86554949    -0.77130
O669        O  0.06222087  0.91632263  0.93298177    -0.86620
O670        O  0.05686726  0.95415842  0.89280275    -0.86310
O671        O  0.09822430  0.92703613  0.97464403    -0.73070
O672        O  0.09477238  0.96085397  0.93939298    -0.85200
Zr673      Zr  0.05875230  0.95378020  0.09296061     2.26420
Zr674      Zr  0.07540759  0.90859606  0.02583445     2.06270
Zr675      Zr  0.06741872  0.97973151  0.94936636     2.10050
Zr676      Zr  0.03532135  0.93502326  0.94349377     1.78760
O677        O  0.08041290  0.01051461  0.95913584    -0.94010
O678        O  0.01548165  0.90898166  0.97011572    -0.41810
O679        O  0.04546681  0.96044983  0.99893621    -0.78450
O680        O  0.04809950  0.92786722  0.03633107    -0.97130
O681        O  0.08550660  0.93417420  0.08407564    -0.90440
O682        O  0.08091927  0.97232597  0.04119366    -0.93280
C683        C  0.04543641  0.91688787  0.81544656     1.00470
C684        C  0.08838974  0.97852839  0.82422421     1.13400
C685        C  0.09558300  0.88959841  0.89809227     1.04180
O686        O  0.06209781  0.87779845  0.02505158    -0.95430
O687        O  0.05486810  0.90103722  0.10996541    -0.91180
O688        O  0.04809483  0.92831996  0.15324254    -0.84320
C689        C  0.04672494  0.91080054  0.14938719     1.10820
O690        O  0.13837878  0.94379230  0.99545330    -0.97410
Zr691      Zr  0.10770392  0.95284413  0.03292948     1.88940
O692        O  0.07956185  0.97098974  0.15814328    -0.74060
O693        O  0.10087647  0.89686115  0.08642320    -0.53320
O694        O  0.12417992  0.93407561  0.10506260    -0.98000
O695        O  0.12777332  0.97852443  0.00479678    -0.55220
O696        O  0.10872824  0.97261570  0.11863980    -0.74570
C697        C  0.09655301  0.97700490  0.15739906     0.97770
O698        O  0.04185090  0.96082899  0.18235236    -0.63390
O699        O  0.04699999  0.99558148  0.87983815    -0.58200
O700        O  0.03413310  0.97630198  0.07608656    -0.94880
O701        O  0.05033203  0.99636551  0.02404953    -0.93310
O702        O  0.01688039  0.95175303  0.87089904    -0.93660
O703        O  0.00374537  0.94242997  0.97612728    -0.92450
C704        C  0.03457833  0.99044770  0.04285993     1.16610
H705        H  0.05200332  0.95774263  0.85524401     0.32560
H706        H  0.03733003  0.92201923  0.05360877     0.43410
H707        H  0.08341989  0.98409782  0.05845259     0.36930
H708        H  0.10927744  0.91966022  0.96753528     0.33410
H709        H  0.00785436  0.90654911  0.93501865     0.25200
H710        H  0.09699054  0.88418671  0.09680344     0.31140
H711        H  0.13192862  0.94285853  0.12725232     0.37050
H712        H  0.01052238  0.94206841  0.84825584     0.31510
H713        H  0.05522040  0.00445557  0.85929145     0.30390
H714        H  0.07014778  0.01896247  0.94722291     0.32070
H715        H  0.13521507  0.98134867  0.03995780     0.31030
H716        H  0.00357481  0.93867471  0.01757070     0.35030
H717        H  0.02838767  0.95874495  0.17369344     0.27770
H718        H  0.10907797  0.92652668  0.78893052     0.32000
H719        H  0.14762067  0.94754758  0.02524079     0.34850
H720        H  0.04320060  0.98671139  0.84986402     0.27460
H721        H  0.04293436  0.97430277  0.18719923     0.40330
H722        H  0.05322094  0.87795676  0.99189052     0.30390
H723        H  0.02422020  0.89839798  0.97293262     0.38000
H724        H  0.11904438  0.98907473  0.00039205     0.29850
H725        H  0.11151947  0.89522019  0.05928637     0.29920
H726        H  0.12164549  0.92758558  0.84498524     0.30180
Zr727      Zr  0.05084568  0.04679994  0.35151060     2.17510
O728        O  0.05587943  0.02029004  0.28866901    -0.52170
O729        O  0.03663343  0.06779620  0.28221666    -0.75380
O730        O  0.02266269  0.02913608  0.33541306    -0.82160
O731        O  0.10117476  0.04284026  0.35647163    -0.83910
O732        O  0.00632974  0.04447334  0.39992968    -0.79530
O733        O  0.07822916  0.04551749  0.28983174    -0.91170
O734        O  0.02167087  0.08864567  0.33632851    -0.77130
O735        O  0.02904369  0.06590364  0.40182178    -0.86620
O736        O  0.06689046  0.07517735  0.36539482    -0.86310
O737        O  0.04335956  0.03163889  0.44269268    -0.73070
O738        O  0.07727511  0.03914318  0.41156690    -0.85200
Zr739      Zr  0.06252573  0.07196506  0.56866124     2.26420
Zr740      Zr  0.02159392  0.05127893  0.49177363     2.06270
Zr741      Zr  0.09289972  0.06732959  0.42720200     2.10050
Zr742      Zr  0.04466944  0.09412090  0.41446746     1.78760
O743        O  0.12645250  0.06205231  0.41473704    -0.94010
O744        O  0.01758255  0.11279412  0.44090598    -0.41810
O745        O  0.07093979  0.08687823  0.47725882    -0.78450
O746        O  0.03652548  0.08044142  0.50667946    -0.97130
O747        O  0.04772419  0.04335582  0.55160652    -0.90440
O748        O  0.08503083  0.05305922  0.51881461    -0.93280
C749        C  0.02258674  0.07831468  0.29128441     1.00470
C750        C  0.09379290  0.03861724  0.30704392     1.13400
C751        C  0.00939931  0.02964415  0.37233103     1.04180
O752        O  0.98787104  0.05623521  0.49833317    -0.95430
O753        O  0.00974922  0.06609550  0.57696986    -0.91180
O754        O  0.03374839  0.07749872  0.62966951    -0.84320
C755        C  0.01600035  0.07421519  0.62207558     1.10820
O756        O  0.07298182  0.99694202  0.44354593    -0.97410
Zr757      Zr  0.06992788  0.02475374  0.50109908     1.88940
O758        O  0.06961548  0.04901908  0.64571855    -0.74060
O759        O  0.01444580  0.02334391  0.54579660    -0.53320
O760        O  0.05233819  0.99895750  0.54115323    -0.98000
O761        O  0.10278712  0.01509557  0.49975072    -0.55220
O762        O  0.07711159  0.02211452  0.60161043    -0.74570
C763        C  0.07473081  0.03197581  0.64638842     0.97770
O764        O  0.06615168  0.09869910  0.63077686    -0.63390
O765        O  0.10097339  0.09409341  0.36782873    -0.58200
O766        O  0.09381574  0.08410236  0.58605837    -0.94880
O767        O  0.11168416  0.08014623  0.50552711    -0.93310
O768        O  0.05837787  0.11304916  0.33767981    -0.93660
O769        O  0.05247243  0.12486643  0.44766029    -0.92450
C770        C  0.10939884  0.08548958  0.55806030     1.16610
H771        H  0.07077152  0.08028729  0.32845808     0.32560
H772        H  0.02844629  0.08921011  0.52554918     0.43410
H773        H  0.09603575  0.05074939  0.54238571     0.36930
H774        H  0.03800848  0.01980944  0.43611508     0.33410
H775        H  0.01474018  0.12017626  0.40559023     0.25200
H776        H  0.00057198  0.02263672  0.54626272     0.31140
H777        H  0.06177786  0.99112986  0.56121065     0.37050
H778        H  0.04744093  0.11826038  0.31652633     0.31510
H779        H  0.11189199  0.09962604  0.38776553     0.30390
H780        H  0.12962545  0.06756142  0.37651445     0.32070
H781        H  0.10797827  0.01856562  0.53800888     0.31030
H782        H  0.05479286  0.12334237  0.48986004     0.35030
H783        H  0.05523532  0.10671582  0.62183787     0.27770
H784        H  0.04533607  0.01949256  0.26088765     0.32000
H785        H  0.08045962  0.98823435  0.46755308     0.34850
H786        H  0.10620759  0.08896112  0.33158084     0.27460
H787        H  0.06394064  0.09411232  0.67082073     0.40330
H788        H  0.98568681  0.06809625  0.47788955     0.30390
H789        H  0.00706768  0.10394207  0.44385009     0.38000
H790        H  0.10892007  0.02356786  0.47173825     0.29850
H791        H  0.01870838  0.01326526  0.52068081     0.29920
H792        H  0.05459870  0.00936452  0.31432178     0.30180
Zr793      Zr  0.68337158  0.18024274  0.81826875     2.17510
O794        O  0.65355843  0.17797348  0.86982162    -0.52170
O795        O  0.70393125  0.17148929  0.89982775    -0.75380
O796        O  0.67359374  0.14866997  0.82682404    -0.82160
O797        O  0.67636604  0.22957090  0.81565403    -0.83910
O798        O  0.68075132  0.13230146  0.74576848    -0.79530
O799        O  0.67662645  0.20710017  0.88216065    -0.91170
O800        O  0.72386474  0.15579640  0.84590502    -0.77130
O801        O  0.70605204  0.16044632  0.77280717    -0.86620
O802        O  0.71203763  0.19706164  0.81818352    -0.86310
O803        O  0.67278738  0.17246264  0.72064150    -0.73070
O804        O  0.67594856  0.20644795  0.75847373    -0.85200
Zr805      Zr  0.71777201  0.19809172  0.62054692     2.26420
Zr806      Zr  0.69644900  0.15325322  0.67530949     2.06270
Zr807      Zr  0.70454388  0.22368478  0.76112889     2.10050
Zr808      Zr  0.73445233  0.17718290  0.77346582     1.78760
O809        O  0.69916968  0.25681849  0.76078988    -0.94010
O810        O  0.75365478  0.14996187  0.75660220    -0.41810
O811        O  0.72743506  0.20406569  0.71863718    -0.78450
O812        O  0.72486504  0.17077490  0.67674791    -0.97130
O813        O  0.68987464  0.18006506  0.61761236    -0.90440
O814        O  0.69429206  0.21691545  0.66568507    -0.93280
C815        C  0.71896652  0.16191256  0.89491649     1.00470
C816        C  0.67399008  0.22416632  0.86800002     1.13400
C817        C  0.67365991  0.13379561  0.79729102     1.04180
O818        O  0.70937329  0.12224825  0.67330885    -0.95430
O819        O  0.71831926  0.14819205  0.58995024    -0.91180
O820        O  0.71651946  0.17552952  0.54394531    -0.84320
C821        C  0.72323268  0.15920129  0.54780162     1.10820
O822        O  0.63458467  0.19193205  0.69041179    -0.97410
Zr823      Zr  0.66663931  0.19912362  0.66060685     1.88940
O824        O  0.70248161  0.21857304  0.55010055    -0.74060
O825        O  0.67127051  0.14330481  0.61135797    -0.53320
O826        O  0.65156243  0.18147501  0.58424038    -0.98000
O827        O  0.64684718  0.22609709  0.67487128    -0.55220
O828        O  0.67131514  0.21864332  0.57334668    -0.74570
C829        C  0.68548708  0.22445842  0.54338394     0.97770
O830        O  0.75069167  0.19232135  0.60036666    -0.63390
O831        O  0.72397317  0.23428235  0.84158539    -0.58200
O832        O  0.73926493  0.22375350  0.62257309    -0.94880
O833        O  0.72012468  0.23860338  0.67932585    -0.93310
O834        O  0.75202353  0.19027840  0.85382327    -0.93660
O835        O  0.76689214  0.18552193  0.75153058    -0.92450
C836        C  0.73688584  0.23490888  0.66415435     1.16610
H837        H  0.71566158  0.20027884  0.85707426     0.32560
H838        H  0.73520324  0.16394469  0.66064195     0.43410
H839        H  0.69164017  0.22867983  0.64800856     0.36930
H840        H  0.66126841  0.16552462  0.72379505     0.33410
H841        H  0.75986014  0.14746776  0.79440658     0.25200
H842        H  0.67566376  0.13134366  0.59623197     0.31140
H843        H  0.64522253  0.19077999  0.55933397     0.37050
H844        H  0.76091815  0.18046239  0.86589745     0.31510
H845        H  0.71639406  0.23224469  0.87709291     0.30390
H846        H  0.70376087  0.26116739  0.79885335     0.32070
H847        H  0.64101811  0.22857673  0.63649773     0.31030
H848        H  0.77057622  0.17814440  0.71747491     0.35030
H849        H  0.75594617  0.19326852  0.63985265     0.27770
H850        H  0.65590203  0.16936339  0.90263965     0.32000
H851        H  0.62648094  0.19548762  0.65713289     0.34850
H852        H  0.73462117  0.22554553  0.84481523     0.27460
H853        H  0.75199920  0.17900166  0.59427604     0.40330
H854        H  0.71860331  0.12190003  0.70550767     0.30390
H855        H  0.74449682  0.13984275  0.75235439     0.38000
H856        H  0.65581399  0.23632918  0.68030798     0.29850
H857        H  0.66080218  0.14010123  0.63784174     0.29920
H858        H  0.64503664  0.17130858  0.84334740     0.30180
Zr859      Zr  0.82195330  0.16868484  0.11953061     2.17510
O860        O  0.84756619  0.16019707  0.05462994    -0.52170
O861        O  0.79726820  0.16437913  0.04548865    -0.75380
O862        O  0.82608115  0.13575839  0.11763311    -0.82160
O863        O  0.82600449  0.21970719  0.09269526    -0.83910
O864        O  0.83414754  0.12606832  0.20737369    -0.79530
O865        O  0.83486090  0.19259596  0.05324226    -0.91170
O866        O  0.77513867  0.15076485  0.09967443    -0.77130
O867        O  0.79981841  0.15033165  0.17431423    -0.86620
O868        O  0.79496248  0.18832852  0.12466463    -0.86310
O869        O  0.83514790  0.16236239  0.21585012    -0.73070
O870        O  0.83488253  0.19442557  0.17180153    -0.85200
Zr871      Zr  0.79734744  0.18909233  0.32696318     2.26420
Zr872      Zr  0.81256156  0.14370247  0.27008651     2.06270
Zr873      Zr  0.80773997  0.21300450  0.17798920     2.10050
Zr874      Zr  0.77378491  0.17032102  0.18237664     1.78760
O875        O  0.82511506  0.24167970  0.18454546    -0.94010
O876        O  0.75317797  0.14398767  0.19781349    -0.41810
O877        O  0.79924491  0.18567258  0.22578076    -0.78450
O878        O  0.78472149  0.16295569  0.27736562    -0.97130
O879        O  0.82403394  0.16977279  0.32427406    -0.90440
O880        O  0.81879534  0.20804787  0.27382266    -0.93280
C881        C  0.78107542  0.15677518  0.05124974     1.00470
C882        C  0.83458006  0.21036994  0.05405515     1.13400
C883        C  0.83648759  0.12628698  0.15179129     1.04180
O884        O  0.79732337  0.11410290  0.25685658    -0.95430
O885        O  0.79230911  0.13959262  0.35924138    -0.91180
O886        O  0.80146104  0.16540810  0.39964952    -0.84320
C887        C  0.79063806  0.15155324  0.40014281     1.10820
O888        O  0.87673064  0.17909202  0.23686845    -0.97410
Zr889      Zr  0.84566773  0.18851468  0.27031184     1.88940
O890        O  0.81616855  0.20563141  0.39587207    -0.74060
O891        O  0.83412660  0.12899414  0.33840718    -0.53320
O892        O  0.86305865  0.17110973  0.34373138    -0.98000
O893        O  0.86534409  0.21445332  0.24181256    -0.55220
O894        O  0.84479469  0.20946826  0.35387273    -0.74570
C895        C  0.83229672  0.21332623  0.39236582     0.97770
O896        O  0.76442190  0.19045435  0.35663409    -0.63390
O897        O  0.78027932  0.22553458  0.12764584    -0.58200
O898        O  0.78276699  0.21878854  0.33246061    -0.94880
O899        O  0.78909707  0.23023136  0.24271585    -0.93310
O900        O  0.75489273  0.19339985  0.13178053    -0.93660
O901        O  0.74693016  0.18378373  0.23168665    -0.92450
C902        C  0.78194349  0.23121262  0.29322602     1.16610
H903        H  0.78996482  0.19268350  0.08801639     0.32560
H904        H  0.77420715  0.15735103  0.29702523     0.43410
H905        H  0.82088265  0.22005360  0.29003450     0.36930
H906        H  0.84673263  0.15572028  0.21024747     0.33410
H907        H  0.74473189  0.14389313  0.16359594     0.25200
H908        H  0.83444137  0.11593295  0.32669358     0.31140
H909        H  0.86968340  0.18051781  0.36680186     0.37050
H910        H  0.74386264  0.18658630  0.11704555     0.31510
H911        H  0.78027322  0.23882558  0.13658281     0.30390
H912        H  0.81593400  0.25129096  0.17291293     0.32070
H913        H  0.87260491  0.21752331  0.27711978     0.31030
H914        H  0.74140784  0.17359414  0.25475556     0.35030
H915        H  0.75764984  0.19611137  0.32368905     0.27770
H916        H  0.84256003  0.15038503  0.02946654     0.32000
H917        H  0.88584710  0.18466503  0.26401143     0.34850
H918        H  0.78357799  0.22511863  0.08591121     0.27460
H919        H  0.75983608  0.17764292  0.35704505     0.40330
H920        H  0.79473545  0.11349649  0.21464878     0.30390
H921        H  0.76134363  0.13305445  0.19319235     0.38000
H922        H  0.85645532  0.22484227  0.23679660     0.29850
H923        H  0.84664851  0.13382547  0.32756803     0.29920
H924        H  0.85708349  0.15408327  0.07962817     0.30180
Zr925      Zr  0.69036921  0.32264203  0.30528982     2.17510
O926        O  0.68311117  0.35045216  0.35927813    -0.52170
O927        O  0.68360890  0.29929605  0.38036603    -0.75380
O928        O  0.65716202  0.32651520  0.31241569    -0.82160
O929        O  0.73893486  0.33464302  0.32394337    -0.83910
O930        O  0.64632086  0.32919209  0.21959238    -0.79530
O931        O  0.71433646  0.32766651  0.38008899    -0.91170
O932        O  0.67266967  0.27671914  0.32493919    -0.77130
O933        O  0.67410727  0.29957515  0.25158253    -0.86620
O934        O  0.71192927  0.29776529  0.30172559    -0.86310
O935        O  0.68335693  0.33528039  0.20956863    -0.73070
O936        O  0.71656456  0.33578024  0.25377521    -0.85200
Zr937      Zr  0.71733729  0.29820410  0.10320503     2.26420
Zr938      Zr  0.66784058  0.31131596  0.15583295     2.06270
Zr939      Zr  0.73831086  0.31075343  0.25230343     2.10050
Zr940      Zr  0.69555259  0.27482018  0.24870124     1.78760
O941        O  0.77003883  0.32254805  0.26486120    -0.94010
O942        O  0.67044055  0.25393258  0.22073210    -0.41810
O943        O  0.72265787  0.28664246  0.20058758    -0.78450
O944        O  0.69001265  0.28626150  0.15354819    -0.97130
O945        O  0.69485547  0.32274447  0.10327248    -0.90440
O946        O  0.73207012  0.32245862  0.15697310    -0.93280
C947        C  0.67667950  0.28311054  0.37455193     1.00470
C948        C  0.73165218  0.33228097  0.37393627     1.13400
C949        C  0.64520801  0.33216904  0.27494237     1.04180
O950        O  0.63821446  0.29475357  0.16227699    -0.95430
O951        O  0.66418977  0.29023990  0.07145629    -0.91180
O952        O  0.69388264  0.28487360  0.03854394    -0.84320
C953        C  0.67600707  0.28257892  0.03622988     1.10820
O954        O  0.69721524  0.37612925  0.18818524    -0.97410
Zr955      Zr  0.70987398  0.34668849  0.15642538     1.88940
O956        O  0.73406321  0.31978678  0.03943256    -0.74060
O957        O  0.65413165  0.33270525  0.08561375    -0.53320
O958        O  0.69056593  0.36052603  0.08013947    -0.98000
O959        O  0.73378495  0.36860704  0.18631471    -0.55220
O960        O  0.73176749  0.34882534  0.07447679    -0.74570
C961        C  0.73860258  0.33688417  0.03944933     0.97770
O962        O  0.73066736  0.28026639  0.02393865    -0.63390
O963        O  0.75187102  0.28978132  0.32439544    -0.58200
O964        O  0.74425083  0.27856508  0.12537439    -0.94880
O965        O  0.75785784  0.30063308  0.17343097    -0.93310
O966        O  0.71139511  0.25807848  0.32658574    -0.93660
O967        O  0.70383415  0.24466899  0.21165294    -0.92450
C968        C  0.75672562  0.28376154  0.16157763     1.16610
H969        H  0.71527415  0.29356992  0.34028044     0.32560
H970        H  0.68529370  0.27523911  0.13601145     0.43410
H971        H  0.74383484  0.32699674  0.14205894     0.36930
H972        H  0.67521185  0.34580698  0.21397320     0.33410
H973        H  0.66739245  0.24693304  0.25660076     0.25200
H974        H  0.64084553  0.32882910  0.08240945     0.31140
H975        H  0.69932897  0.36822319  0.05710743     0.37050
H976        H  0.70206482  0.24892399  0.34016334     0.31510
H977        H  0.75032817  0.29597646  0.36214113     0.30390
H978        H  0.77349456  0.31952992  0.30553677     0.32070
H979        H  0.73673162  0.37587234  0.15090400     0.31030
H980        H  0.70508789  0.24650178  0.16914921     0.35030
H981        H  0.72574117  0.28581208  0.98750259     0.27770
H982        H  0.67448001  0.34647571  0.39065595     0.32000
H983        H  0.70109947  0.38523700  0.15831160     0.34850
H984        H  0.74339059  0.27905852  0.32657012     0.27460
H985        H  0.72481334  0.26794011  0.02648740     0.40330
H986        H  0.63714753  0.29114831  0.20372926     0.30390
H987        H  0.65938983  0.26198668  0.21413649     0.38000
H988        H  0.74515407  0.36102052  0.19333054     0.29850
H989        H  0.65358987  0.34457916  0.10624485     0.29920
H990        H  0.67525057  0.35802688  0.33272779     0.30180
Zr991      Zr  0.81299361  0.29461438  0.84502627     2.17510
O992        O  0.79365261  0.29461982  0.93256283    -0.52170
O993        O  0.83524854  0.27585630  0.89957266    -0.75380
O994        O  0.79370848  0.26733587  0.85392628    -0.82160
O995        O  0.80753662  0.34507783  0.85007734    -0.83910
O996        O  0.81096654  0.25442320  0.78752718    -0.79530
O997        O  0.81167683  0.32072234  0.90973798    -0.91170
O998        O  0.85756882  0.26708671  0.83557520    -0.77130
O999        O  0.83095743  0.27564160  0.78198342    -0.86620
O1000       O  0.84085772  0.31179537  0.82400579    -0.86310
O1001       O  0.79357529  0.28959148  0.75958407    -0.73070
O1002       O  0.80298630  0.32176141  0.79389006    -0.85200
Zr1003     Zr  0.82891458  0.31388250  0.62341546     2.26420
Zr1004     Zr  0.81277393  0.27113031  0.69638238     2.06270
Zr1005     Zr  0.83043288  0.33884671  0.77129050     2.10050
Zr1006     Zr  0.85856826  0.29209789  0.76226211     1.78760
O1007       O  0.82165470  0.37094027  0.75646247    -0.94010
O1008       O  0.87616946  0.26684219  0.71952124    -0.41810
O1009       O  0.84795226  0.31887626  0.70926605    -0.78450
O1010       O  0.84107951  0.28730910  0.67419831    -0.97130
O1011       O  0.80132713  0.29780614  0.64782904    -0.90440
O1012       O  0.81161847  0.33403792  0.68562281    -0.93280
C1013       C  0.84827930  0.26488594  0.88312414     1.00470
C1014       C  0.80405898  0.33626255  0.89785557     1.13400
C1015       C  0.79581381  0.25472336  0.81663218     1.04180
O1016       O  0.81661466  0.23894867  0.67166846    -0.95430
O1017       O  0.82581080  0.26179968  0.60499856    -0.91180
O1018       O  0.83213353  0.28817619  0.55509203    -0.84320
C1019       C  0.83078975  0.27053738  0.55911916     1.10820
O1020       O  0.75992652  0.32122644  0.78523031    -0.97410
Zr1021     Zr  0.78401697  0.31724280  0.71123001     1.88940
O1022       O  0.80238488  0.32263816  0.55842907    -0.74060
O1023       O  0.78178299  0.27060034  0.65254067    -0.53320
O1024       O  0.75497125  0.30028869  0.69577700    -0.98000
O1025       O  0.77346294  0.34921126  0.71002908    -0.55220
O1026       O  0.77557613  0.32153712  0.61165855    -0.74570
C1027       C  0.78431414  0.32323310  0.56359144     0.97770
O1028       O  0.85029032  0.31597204  0.54061645    -0.63390
O1029       O  0.85292344  0.35077706  0.84123057    -0.58200
O1030       O  0.84446622  0.34309994  0.61221734    -0.94880
O1031       O  0.85360077  0.35151579  0.70249050    -0.93310
O1032       O  0.88046890  0.30469963  0.83279332    -0.93660
O1033       O  0.88838804  0.30124113  0.71918273    -0.92450
C1034       C  0.85519560  0.35190412  0.64665849     1.16610
H1035       H  0.84742556  0.31482213  0.85936829     0.32560
H1036       H  0.84952126  0.28054621  0.64956061     0.43410
H1037       H  0.80878014  0.34550824  0.66598201     0.36930
H1038       H  0.78191468  0.28362556  0.76921204     0.33410
H1039       H  0.88507017  0.26285453  0.75027918     0.25200
H1040       H  0.78168797  0.25966419  0.62755042     0.31140
H1041       H  0.74611244  0.30939329  0.67880170     0.37050
H1042       H  0.88616952  0.29378257  0.85194380     0.31510
H1043       H  0.85720573  0.36257576  0.82406992     0.30390
H1044       H  0.82334748  0.37666998  0.79494897     0.32070
H1045       H  0.75956807  0.34854176  0.71012054     0.31030
H1046       H  0.88489411  0.30733166  0.68203690     0.35030
H1047       H  0.84607521  0.32665752  0.51693649     0.27770
H1048       H  0.79607398  0.28272583  0.95253287     0.32000
H1049       H  0.76421831  0.31354140  0.81845476     0.34850
H1050       H  0.84520913  0.35438115  0.87504173     0.27460
H1051       H  0.86271827  0.31945107  0.55645578     0.40330
H1052       H  0.82812435  0.23499679  0.69261108     0.30390
H1053       H  0.86699424  0.25666416  0.71695617     0.38000
H1054       H  0.77653825  0.35395761  0.67074418     0.29850
H1055       H  0.77293448  0.26804797  0.68436228     0.29920
H1056       H  0.78048005  0.29394481  0.91885222     0.30180
Zr1057     Zr  0.44703449  0.45300180  0.09898523     2.17510
O1058       O  0.46598638  0.45318568  0.18750887    -0.52170
O1059       O  0.42820528  0.47476534  0.15597103    -0.75380
O1060       O  0.47237081  0.47562471  0.09480432    -0.82160
O1061       O  0.44856706  0.40235434  0.10699894    -0.83910
O1062       O  0.45591056  0.49309624  0.03555624    -0.79530
O1063       O  0.44839069  0.42701529  0.16545845    -0.91170
O1064       O  0.40142257  0.48153486  0.10654958    -0.77130
O1065       O  0.42875385  0.47365165  0.04100097    -0.86620
O1066       O  0.41721540  0.43821237  0.08685992    -0.86310
O1067       O  0.46367992  0.45476224  0.00692051    -0.73070
O1068       O  0.45290634  0.42470862  0.04770459    -0.85200
Zr1069     Zr  0.42231645  0.43615899  0.88516855     2.26420
Zr1070     Zr  0.44542143  0.47640642  0.95138578     2.06270
Zr1071     Zr  0.42338691  0.41016358  0.03447764     2.10050
Zr1072     Zr  0.39931113  0.45917272  0.02839651     1.78760
O1073       O  0.42864930  0.37706251  0.03289331    -0.94010
O1074       O  0.38325634  0.48664026  0.99245952    -0.41810
O1075       O  0.40579219  0.43160412  0.97591347    -0.78450
O1076       O  0.41478775  0.46381870  0.93650836    -0.97130
O1077       O  0.45231649  0.44878651  0.90051017    -0.90440
O1078       O  0.43884068  0.41352289  0.94216368    -0.93280
C1079       C  0.41294407  0.48406115  0.14868000     1.00470
C1080       C  0.45409135  0.41084638  0.15319600     1.13400
C1081       C  0.47163756  0.48895262  0.05830226     1.04180
O1082       O  0.44194222  0.50937136  0.93626404    -0.95430
O1083       O  0.43321782  0.48711485  0.86091712    -0.91180
O1084       O  0.42191798  0.46205757  0.81442692    -0.84320
C1085       C  0.42668867  0.47914247  0.81621959     1.10820
O1086       O  0.49892430  0.42707406  0.00884736    -0.97410
Zr1087     Zr  0.46890246  0.42656189  0.95759474     1.88940
O1088       O  0.44607360  0.42486620  0.81642985    -0.74060
O1089       O  0.47371542  0.47951322  0.89387100    -0.53320
O1090       O  0.49370436  0.43973086  0.89749134    -0.98000
O1091       O  0.47821740  0.39571923  0.98863453    -0.55220
O1092       O  0.46911933  0.41035473  0.86688790    -0.74570
C1093       C  0.46140697  0.41544938  0.81936656     0.97770
O1094       O  0.39747341  0.43296511  0.81288613    -0.63390
O1095       O  0.40003116  0.40245596  0.10795433    -0.58200
O1096       O  0.40286429  0.40959222  0.87739491    -0.94880
O1097       O  0.40100842  0.39552089  0.96586439    -0.93310
O1098       O  0.37766811  0.44620835  0.09965500    -0.93660
O1099       O  0.36843843  0.45301519  0.98734863    -0.92450
C1100       C  0.39608648  0.39744920  0.91191550     1.16610
H1101       H  0.41148401  0.43593389  0.12423656     0.32560
H1102       H  0.40686768  0.47177597  0.91321793     0.43410
H1103       H  0.43950566  0.40183198  0.92267946     0.36930
H1104       H  0.47641442  0.45867024  0.01047879     0.33410
H1105       H  0.37455243  0.49011232  0.02405904     0.25200
H1106       H  0.47610070  0.49287225  0.89179797     0.31140
H1107       H  0.50086432  0.42910048  0.88247205     0.37050
H1108       H  0.37132259  0.45699566  0.11682925     0.31510
H1109       H  0.39406685  0.39105998  0.09379228     0.30390
H1110       H  0.42546380  0.37272634  0.07256219     0.32070
H1111       H  0.48537097  0.39069488  0.95549042     0.31030
H1112       H  0.37099331  0.44944171  0.94670998     0.35030
H1113       H  0.38993057  0.44439408  0.81531434     0.27770
H1114       H  0.46556681  0.46598999  0.20172214     0.32000
H1115       H  0.50739487  0.41888580  0.98679771     0.34850
H1116       H  0.40750966  0.39843968  0.14211863     0.27460
H1117       H  0.40383176  0.43367472  0.77469326     0.40330
H1118       H  0.43033808  0.51260486  0.95760106     0.30390
H1119       H  0.39301902  0.49631968  0.99259380     0.38000
H1120       H  0.46639570  0.38857764  0.98927007     0.29850
H1121       H  0.48381987  0.47417915  0.91794652     0.29920
H1122       H  0.47913654  0.45123406  0.17486622     0.30180
Zr1123     Zr  0.44851892  0.57155939  0.57216351     2.17510
O1124       O  0.45101137  0.59625734  0.64280470    -0.52170
O1125       O  0.43868970  0.54868151  0.64488135    -0.75380
O1126       O  0.41915806  0.58737695  0.58851500    -0.82160
O1127       O  0.50129889  0.56579733  0.56995673    -0.83910
O1128       O  0.40117877  0.58668052  0.50636103    -0.79530
O1129       O  0.47800155  0.57389534  0.63140661    -0.91170
O1130       O  0.41947603  0.53130010  0.59194596    -0.77130
O1131       O  0.42453561  0.55410865  0.52360682    -0.86620
O1132       O  0.46185748  0.54217088  0.55517167    -0.86310
O1133       O  0.43995751  0.58730201  0.48213684    -0.73070
O1134       O  0.47451271  0.57816885  0.50947659    -0.85200
Zr1135     Zr  0.45829717  0.54671657  0.35472543     2.26420
Zr1136     Zr  0.41706873  0.56856679  0.43198888     2.06270
Zr1137     Zr  0.48777056  0.54842885  0.49264377     2.10050
Zr1138     Zr  0.43808906  0.52487853  0.50742945     1.78760
O1139       O  0.52145277  0.55332995  0.48263219    -0.94010
O1140       O  0.40756539  0.51137351  0.48613139    -0.41810
O1141       O  0.46436595  0.53035215  0.44518136    -0.78450
O1142       O  0.43188358  0.53922626  0.41627631    -0.97130
O1143       O  0.44333422  0.57561906  0.37041991    -0.90440
O1144       O  0.48084909  0.56488065  0.40629617    -0.93280
C1145       C  0.42728375  0.53513173  0.63993764     1.00470
C1146       C  0.49560753  0.57132302  0.61939636     1.13400
C1147       C  0.40448850  0.59165507  0.55898206     1.04180
O1148       O  0.38403182  0.56043632  0.44124676    -0.95430
O1149       O  0.40583527  0.54981093  0.34913292    -0.91180
O1150       O  0.43129157  0.55140920  0.29212599    -0.84320
C1151       C  0.41484768  0.54534488  0.30271321     1.10820
O1152       O  0.46220908  0.62363183  0.46502156    -0.97410
Zr1153     Zr  0.46615522  0.59365332  0.41993088     1.88940
O1154       O  0.48018389  0.56396158  0.29451327    -0.74060
O1155       O  0.40772140  0.59459499  0.37123895    -0.53320
O1156       O  0.44843116  0.61346422  0.35368595    -0.98000
O1157       O  0.49563313  0.60907992  0.44197960    -0.55220
O1158       O  0.48472302  0.59269901  0.33018733    -0.74570
C1159       C  0.48830278  0.57971906  0.29421212     0.97770
O1160       O  0.45435623  0.52789926  0.26820374    -0.63390
O1161       O  0.49582443  0.52108285  0.54891854    -0.58200
O1162       O  0.47922285  0.52057500  0.35162169    -0.94880
O1163       O  0.49953622  0.53630230  0.40154589    -0.93310
O1164       O  0.45274115  0.50359007  0.57653532    -0.93660
O1165       O  0.43676809  0.49367437  0.46983441    -0.92450
C1166       C  0.49377102  0.52087900  0.38349282     1.16610
H1167       H  0.46577643  0.53654273  0.59130608     0.32560
H1168       H  0.42445416  0.52987268  0.39798317     0.43410
H1169       H  0.49314722  0.56687999  0.39010708     0.36930
H1170       H  0.43446767  0.59909549  0.49101995     0.33410
H1171       H  0.39898753  0.52202769  0.48158942     0.25200
H1172       H  0.39408047  0.59284738  0.36490477     0.31140
H1173       H  0.45808467  0.62010252  0.33079829     0.37050
H1174       H  0.44223018  0.49608726  0.59185716     0.31510
H1175       H  0.49430241  0.52423045  0.59027377     0.30390
H1176       H  0.52747646  0.54187222  0.49660360     0.32070
H1177       H  0.49830421  0.61685464  0.40743620     0.31030
H1178       H  0.44815947  0.48730047  0.48434590     0.35030
H1179       H  0.46688339  0.52717220  0.24967809     0.27770
H1180       H  0.44153693  0.59351266  0.67312966     0.32000
H1181       H  0.46611383  0.63277091  0.43527750     0.34850
H1182       H  0.48553781  0.51234933  0.54094558     0.27460
H1183       H  0.45166830  0.51527723  0.28238822     0.40330
H1184       H  0.38325005  0.55351346  0.47840951     0.30390
H1185       H  0.40359849  0.50539669  0.52294309     0.38000
H1186       H  0.50522478  0.59920237  0.44073653     0.29850
H1187       H  0.40853835  0.60534049  0.39720443     0.29920
H1188       H  0.44638836  0.60749843  0.62273616     0.30180
Zr1189     Zr  0.55047622  0.44142518  0.57639295     2.17510
O1190       O  0.55539534  0.46473079  0.65068395    -0.52170
O1191       O  0.52975170  0.42592683  0.64383459    -0.75380
O1192       O  0.52646490  0.46489730  0.57720730    -0.82160
O1193       O  0.60125401  0.43977363  0.58227774    -0.83910
O1194       O  0.50891825  0.44743955  0.52317644    -0.79530
O1195       O  0.57660891  0.43903530  0.64240264    -0.91170
O1196       O  0.51855083  0.40050560  0.60004501    -0.77130
O1197       O  0.52743661  0.42361286  0.52673485    -0.86620
O1198       O  0.56404518  0.41147087  0.56905717    -0.86310
O1199       O  0.54622668  0.45572053  0.48161764    -0.73070
O1200       O  0.57865097  0.44580934  0.52017360    -0.85200
Zr1201     Zr  0.56186068  0.41286770  0.36546156     2.26420
Zr1202     Zr  0.52279816  0.43753496  0.43298754     2.06270
Zr1203     Zr  0.59163870  0.41574064  0.51007310     2.10050
Zr1204     Zr  0.54071998  0.39397758  0.52037250     1.78760
O1205       O  0.62531953  0.42082339  0.50079344    -0.94010
O1206       O  0.51185122  0.37802760  0.49489126    -0.41810
O1207       O  0.56790303  0.39842494  0.45962892    -0.78450
O1208       O  0.53483582  0.40684207  0.42525303    -0.97130
O1209       O  0.55020072  0.44296875  0.37594870    -0.90440
O1210       O  0.58624349  0.42915391  0.41578106    -0.93280
C1211       C  0.51784541  0.41285815  0.63979525     1.00470
C1212       C  0.59285368  0.44501324  0.62926571     1.13400
C1213       C  0.51287698  0.46334785  0.54185640     1.04180
O1214       O  0.48884436  0.43869402  0.42097802    -0.95430
O1215       O  0.50914444  0.42103584  0.35296807    -0.91180
O1216       O  0.53301731  0.40703039  0.30597273    -0.84320
C1217       C  0.51542985  0.41132705  0.31107166     1.10820
O1218       O  0.57423451  0.49040694  0.46617504    -0.97410
Zr1219     Zr  0.57414948  0.45937193  0.42697549     1.88940
O1220       O  0.57030982  0.43685851  0.29245349    -0.74060
O1221       O  0.52118207  0.46435832  0.36937631    -0.53320
O1222       O  0.56029846  0.48277013  0.36341289    -0.98000
O1223       O  0.60639847  0.46891143  0.44534092    -0.55220
O1224       O  0.59045260  0.45511491  0.33826639    -0.74570
C1225       C  0.58187994  0.45047472  0.29254166     0.97770
O1226       O  0.56768952  0.39064667  0.28885068    -0.63390
O1227       O  0.60018104  0.39252378  0.58240969    -0.58200
O1228       O  0.58883243  0.39343659  0.35752795    -0.94880
O1229       O  0.60581754  0.39346305  0.44175754    -0.93310
O1230       O  0.55372184  0.37426162  0.59668628    -0.93660
O1231       O  0.54574459  0.36251894  0.48854414    -0.92450
C1232       C  0.60251380  0.38802527  0.38933941     1.16610
H1233       H  0.56697407  0.40648709  0.60704544     0.32560
H1234       H  0.52634317  0.39822249  0.40767933     0.43410
H1235       H  0.59793746  0.42875262  0.39457625     0.36930
H1236       H  0.54224850  0.46825033  0.48425550     0.33410
H1237       H  0.50845183  0.37095921  0.53030831     0.25200
H1238       H  0.50773655  0.46588975  0.35959711     0.31140
H1239       H  0.57104036  0.48842886  0.34267749     0.37050
H1240       H  0.54264962  0.36997452  0.61896308     0.31510
H1241       H  0.61100996  0.38596245  0.56524122     0.30390
H1242       H  0.63066911  0.41672112  0.53848136     0.32070
H1243       H  0.61011502  0.47614005  0.41056246     0.31030
H1244       H  0.54894444  0.36371626  0.44683125     0.35030
H1245       H  0.55757450  0.38137477  0.29229482     0.27770
H1246       H  0.54350306  0.46579028  0.67266214     0.32000
H1247       H  0.58335457  0.49749245  0.44252791     0.34850
H1248       H  0.60565281  0.39960892  0.61479553     0.27460
H1249       H  0.56507867  0.39735281  0.25207070     0.40330
H1250       H  0.48406234  0.42863523  0.44616396     0.30390
H1251       H  0.50223788  0.38786917  0.49215580     0.38000
H1252       H  0.61391226  0.45746577  0.44310326     0.29850
H1253       H  0.52447767  0.47491237  0.39385731     0.29920
H1254       H  0.55681447  0.47657340  0.62965340     0.30180
Zr1255     Zr  0.58343603  0.55087016  0.05843261     2.17510
O1256       O  0.61026542  0.54923442  0.12441000    -0.52170
O1257       O  0.56171812  0.56377755  0.13018054    -0.75380
O1258       O  0.59871048  0.57992197  0.06972643    -0.82160
O1259       O  0.58506520  0.50115820  0.06218294    -0.83910
O1260       O  0.59973989  0.59464126  0.98172787    -0.79530
O1261       O  0.58394722  0.52420437  0.12602489    -0.91170
O1262       O  0.53648858  0.57454064  0.08051279    -0.77130
O1263       O  0.56484436  0.57270205  0.00490873    -0.86620
O1264       O  0.55390245  0.53650896  0.04613138    -0.86310
O1265       O  0.59924442  0.55665181  0.96666788    -0.73070
O1266       O  0.59111692  0.52403448  0.00360766    -0.85200
Zr1267     Zr  0.55750818  0.53418037  0.84554639     2.26420
Zr1268     Zr  0.57959216  0.57789206  0.91251654     2.06270
Zr1269     Zr  0.56143583  0.50932978  0.99287402     2.10050
Zr1270     Zr  0.53565402  0.55799539  0.99116671     1.78760
O1271       O  0.56702568  0.47629817  0.99566603    -0.94010
O1272       O  0.52388000  0.58856843  0.96608074    -0.41810
O1273       O  0.54270869  0.53084707  0.93923102    -0.78450
O1274       O  0.55003514  0.56195282  0.89904179    -0.97130
O1275       O  0.58640676  0.55042969  0.85778738    -0.90440
O1276       O  0.57679554  0.51380781  0.90212938    -0.93280
C1277       C  0.54577739  0.57213504  0.12739354     1.00470
C1278       C  0.58523499  0.50697679  0.11405360     1.13400
C1279       C  0.60408841  0.59292842  0.03605684     1.04180
O1280       O  0.56915430  0.60973655  0.91902038    -0.95430
O1281       O  0.56034367  0.58739930  0.82785881    -0.91180
O1282       O  0.56537892  0.56077340  0.78546307    -0.84320
C1283       C  0.55687581  0.57625954  0.78635894     1.10820
O1284       O  0.63697266  0.53461107  0.95158302    -0.97410
Zr1285     Zr  0.60575988  0.52954022  0.91095907     1.88940
O1286       O  0.57562328  0.51216586  0.78633211    -0.74060
O1287       O  0.60503787  0.58711751  0.84814136    -0.53320
O1288       O  0.62495856  0.54610827  0.84036084    -0.98000
O1289       O  0.62202959  0.50154256  0.94141318    -0.55220
O1290       O  0.60494616  0.50958925  0.82521359    -0.74570
C1291       C  0.59232559  0.50517602  0.78769729     0.97770
O1292       O  0.53686080  0.53426261  0.76105803    -0.63390
O1293       O  0.53686458  0.50061392  0.06141827    -0.58200
O1294       O  0.52990995  0.51455405  0.85941470    -0.94880
O1295       O  0.54700177  0.49515844  0.90964322    -0.93310
O1296       O  0.51215513  0.54316221  0.05207986    -0.93660
O1297       O  0.50482558  0.55809690  0.94519586    -0.92450
C1298       C  0.53087379  0.50092924  0.89483932     1.16610
H1299       H  0.54825638  0.53391143  0.08339533     0.32560
H1300       H  0.54032696  0.56868206  0.87870716     0.43410
H1301       H  0.57869177  0.50165936  0.88708754     0.36930
H1302       H  0.61130429  0.56219540  0.97420120     0.33410
H1303       H  0.51419043  0.59121441  0.99570769     0.25200
H1304       H  0.60366525  0.60063057  0.84441405     0.31140
H1305       H  0.63184539  0.53642988  0.81912093     0.37050
H1306       H  0.50508081  0.55339125  0.06994769     0.31510
H1307       H  0.54199041  0.50311703  0.10049869     0.30390
H1308       H  0.55888537  0.47144857  0.02694768     0.32070
H1309       H  0.62895579  0.49741505  0.90660017     0.31030
H1310       H  0.50744034  0.55820433  0.90295883     0.35030
H1311       H  0.53529585  0.52120867  0.75025712     0.27770
H1312       H  0.60783844  0.55851105  0.15472779     0.32000
H1313       H  0.64591604  0.52976765  0.92254523     0.34850
H1314       H  0.52690148  0.50997340  0.05596440     0.27460
H1315       H  0.52439143  0.53821307  0.77544065     0.40330
H1316       H  0.56598263  0.61145925  0.96048203     0.30390
H1317       H  0.53433644  0.59697407  0.97552925     0.38000
H1318       H  0.61190038  0.49236377  0.94658589     0.29850
H1319       H  0.61657231  0.58534539  0.87166119     0.29920
H1320       H  0.62112372  0.55401104  0.10208887     0.30180
Zr1321     Zr  0.68767705  0.82139682  0.61933211     2.17510
O1322       O  0.66215229  0.82808082  0.55128533    -0.52170
O1323       O  0.71084887  0.82718690  0.54222706    -0.75380
O1324       O  0.67774637  0.85303094  0.61964480    -0.82160
O1325       O  0.68227849  0.76978662  0.59920785    -0.83910
O1326       O  0.68239209  0.86697774  0.70623669    -0.79530
O1327       O  0.67437305  0.79683310  0.55623968    -0.91170
O1328       O  0.73237189  0.84054486  0.59717611    -0.77130
O1329       O  0.71090100  0.83865640  0.67232479    -0.86620
O1330       O  0.71487382  0.80242764  0.62288619    -0.86310
O1331       O  0.67581125  0.82827720  0.71606857    -0.73070
O1332       O  0.67721007  0.79501351  0.67231713    -0.85200
Zr1333     Zr  0.71679713  0.79722354  0.82416728     2.26420
Zr1334     Zr  0.69984788  0.84478934  0.76933146     2.06270
Zr1335     Zr  0.70459698  0.77601888  0.67370044     2.10050
Zr1336     Zr  0.73784074  0.81944290  0.67615590     1.78760
O1337       O  0.69542778  0.74381066  0.67699579    -0.94010
O1338       O  0.75724462  0.84601569  0.69851637    -0.41810
O1339       O  0.72847406  0.79214624  0.72585151    -0.78450
O1340       O  0.72680496  0.82458146  0.77209186    -0.97130
O1341       O  0.69020063  0.81752107  0.82137160    -0.90440
O1342       O  0.69239859  0.78111078  0.76899437    -0.93280
C1343       C  0.72707172  0.83451417  0.54836063     1.00470
C1344       C  0.67395220  0.77904356  0.55956085     1.13400
C1345       C  0.67613636  0.86684499  0.65338691     1.04180
O1346       O  0.71643712  0.87402264  0.76646462    -0.95430
O1347       O  0.72063685  0.84780674  0.85777822    -0.91180
O1348       O  0.71253980  0.82099419  0.89579269    -0.84320
C1349       C  0.72274117  0.83532163  0.89772866     1.10820
O1350       O  0.63548909  0.81069044  0.73415001    -0.97410
Zr1351     Zr  0.66644294  0.80138640  0.76953391     1.88940
O1352       O  0.69696958  0.77829241  0.88675601    -0.74060
O1353       O  0.67644880  0.85658003  0.83649371    -0.53320
O1354       O  0.65020975  0.81967779  0.84211165    -0.98000
O1355       O  0.64610817  0.77561774  0.74535150    -0.55220
O1356       O  0.66661702  0.78150054  0.85635910    -0.74570
C1357       C  0.67937641  0.77429037  0.88917033     0.97770
O1358       O  0.74845869  0.79861492  0.86555637    -0.63390
O1359       O  0.72893950  0.76377142  0.61057987    -0.58200
O1360       O  0.73420703  0.76809885  0.84015060    -0.94880
O1361       O  0.71756055  0.77148428  0.76609648    -0.93310
O1362       O  0.75701003  0.80290965  0.60635352    -0.93660
O1363       O  0.76971969  0.81358781  0.71030311    -0.92450
C1364       C  0.72951853  0.76178246  0.79153277     1.16610
H1365       H  0.71931012  0.79850533  0.58568155     0.32560
H1366       H  0.73739737  0.83004094  0.79149687     0.43410
H1367       H  0.68730949  0.76956253  0.78327825     0.36930
H1368       H  0.66471908  0.83588292  0.71252625     0.33410
H1369       H  0.76364390  0.84913741  0.66155480     0.25200
H1370       H  0.67971301  0.86972159  0.84087292     0.31140
H1371       H  0.64265586  0.81071975  0.86472782     0.37050
H1372       H  0.76642539  0.81200659  0.59295597     0.31510
H1373       H  0.72850754  0.75028748  0.61590325     0.30390
H1374       H  0.69703214  0.73923854  0.63693510     0.32070
H1375       H  0.63958635  0.77236414  0.78198112     0.31030
H1376       H  0.76874073  0.81355847  0.75320040     0.35030
H1377       H  0.75690533  0.79267798  0.83726505     0.27770
H1378       H  0.66699598  0.83765133  0.52438553     0.32000
H1379       H  0.62642193  0.80625969  0.76369148     0.34850
H1380       H  0.74093228  0.76766046  0.62833717     0.27460
H1381       H  0.75215112  0.81167158  0.86239422     0.40330
H1382       H  0.71938978  0.87609751  0.72490208     0.30390
H1383       H  0.74817201  0.85616910  0.70431023     0.38000
H1384       H  0.65480259  0.76521128  0.73850936     0.29850
H1385       H  0.66458823  0.85672111  0.81395103     0.29920
H1386       H  0.65213343  0.83416514  0.57397782     0.30180
Zr1387     Zr  0.82744583  0.80992344  0.33017599     2.17510
O1388       O  0.85414599  0.81408843  0.39538238    -0.52170
O1389       O  0.80519699  0.81898364  0.40611071    -0.75380
O1390       O  0.83926412  0.84099499  0.33040969    -0.82160
O1391       O  0.83845135  0.76142044  0.32622201    -0.83910
O1392       O  0.83419685  0.85585139  0.24366433    -0.79530
O1393       O  0.83657654  0.78294981  0.39378136    -0.91170
O1394       O  0.78495392  0.83342798  0.34789360    -0.77130
O1395       O  0.80494582  0.82865285  0.27795563    -0.86620
O1396       O  0.79918036  0.79222299  0.32836792    -0.86310
O1397       O  0.83917245  0.81738163  0.23302436    -0.73070
O1398       O  0.83687171  0.78378488  0.27483773    -0.85200
Zr1399     Zr  0.79718955  0.78973844  0.12968007     2.26420
Zr1400     Zr  0.81567615  0.83543473  0.18067576     2.06270
Zr1401     Zr  0.80901351  0.76542858  0.27623258     2.10050
Zr1402     Zr  0.77713159  0.81093483  0.27607235     1.78760
O1403       O  0.81394973  0.73216428  0.28161972    -0.94010
O1404       O  0.75710092  0.83778836  0.26012894    -0.41810
O1405       O  0.78597230  0.78375160  0.22654599    -0.78450
O1406       O  0.78801780  0.81696801  0.18065021    -0.97130
O1407       O  0.82447837  0.80858310  0.12780133    -0.90440
O1408       O  0.82041772  0.77238768  0.18165147    -0.93280
C1409       C  0.79018238  0.82843604  0.39821426     1.00470
C1410       C  0.84053906  0.76625205  0.37891224     1.13400
C1411       C  0.84108992  0.85472114  0.29554541     1.04180
O1412       O  0.80064055  0.86549647  0.18505040    -0.95430
O1413       O  0.79414388  0.83953291  0.09317335    -0.91180
O1414       O  0.79545384  0.81178889  0.05016835    -0.84320
C1415       C  0.78896098  0.82824899  0.05255341     1.10820
O1416       O  0.87863963  0.79927628  0.21416364    -0.97410
Zr1417     Zr  0.84761579  0.79083239  0.17812882     1.88940
O1418       O  0.81493957  0.77064110  0.06294426    -0.74060
O1419       O  0.83890798  0.84696057  0.11201885    -0.53320
O1420       O  0.86364429  0.80895896  0.10382658    -0.98000
O1421       O  0.86779895  0.76441935  0.19847201    -0.55220
O1422       O  0.84553971  0.77095500  0.09279527    -0.74570
C1423       C  0.83213123  0.76516072  0.06018076     0.97770
O1424       O  0.76382518  0.79193990  0.10867291    -0.63390
O1425       O  0.79346104  0.75584053  0.36689001    -0.58200
O1426       O  0.78167048  0.76051524  0.12235218    -0.94880
O1427       O  0.79574202  0.74750256  0.19674831    -0.93310
O1428       O  0.75768930  0.79454732  0.34603711    -0.93660
O1429       O  0.74550548  0.80474276  0.24005992    -0.92450
C1430       C  0.78055554  0.75166513  0.17013484     1.16610
H1431       H  0.79470893  0.78941382  0.36695265     0.32560
H1432       H  0.77758315  0.82322629  0.16249809     0.43410
H1433       H  0.82345003  0.76072698  0.16482633     0.36930
H1434       H  0.85057469  0.82445422  0.23643898     0.33410
H1435       H  0.75125950  0.84019427  0.29833911     0.25200
H1436       H  0.83565092  0.86011438  0.10667259     0.31140
H1437       H  0.87078668  0.79986020  0.08090480     0.37050
H1438       H  0.74680754  0.80277022  0.35270058     0.31510
H1439       H  0.79436042  0.74227907  0.36924540     0.30390
H1440       H  0.80143138  0.72631394  0.28423073     0.32070
H1441       H  0.87482154  0.76233178  0.16201462     0.31030
H1442       H  0.74439667  0.81134245  0.20240171     0.35030
H1443       H  0.75810132  0.78814258  0.14586495     0.27770
H1444       H  0.85055762  0.82413812  0.42192577     0.32000
H1445       H  0.88759099  0.79579950  0.18323809     0.34850
H1446       H  0.80180416  0.75998052  0.39858374     0.27460
H1447       H  0.76070199  0.80515864  0.10715457     0.40330
H1448       H  0.79551392  0.86616156  0.22493544     0.30390
H1449       H  0.76591422  0.84813126  0.25395336     0.38000
H1450       H  0.85906436  0.75387485  0.20145505     0.29850
H1451       H  0.85083265  0.84705111  0.13422853     0.29920
H1452       H  0.86440824  0.81916744  0.37109910     0.30180
Zr1453     Zr  0.70047311  0.69865103  0.33627178     2.17510
O1454       O  0.71885074  0.70417268  0.42397667    -0.52170
O1455       O  0.67883070  0.71443080  0.40120725    -0.75380
O1456       O  0.71738014  0.72749436  0.32704547    -0.82160
O1457       O  0.70754077  0.64557107  0.35177866    -0.83910
O1458       O  0.69771463  0.74196513  0.26710495    -0.79530
O1459       O  0.71591348  0.67339264  0.38851796    -0.91170
O1460       O  0.65252225  0.72022942  0.34881479    -0.77130
O1461       O  0.67701878  0.71492131  0.28296861    -0.86620
O1462       O  0.67423464  0.67813704  0.33077519    -0.86310
O1463       O  0.71454670  0.70578927  0.24257878    -0.73070
O1464       O  0.71069459  0.67193839  0.28472530    -0.85200
Zr1465     Zr  0.67656727  0.67686399  0.12755581     2.26420
Zr1466     Zr  0.68978968  0.72124294  0.18971928     2.06270
Zr1467     Zr  0.68434556  0.65204494  0.27444015     2.10050
Zr1468     Zr  0.65107485  0.69512113  0.27766800     1.78760
O1469       O  0.69806141  0.62176229  0.25904165    -0.94010
O1470       O  0.62855456  0.71809087  0.24346105    -0.41810
O1471       O  0.66194649  0.66970425  0.22022721    -0.78450
O1472       O  0.66296645  0.70164643  0.18199427    -0.97130
O1473       O  0.70283750  0.69603648  0.13850400    -0.90440
O1474       O  0.69869559  0.65915011  0.18263835    -0.93280
C1475       C  0.66380821  0.72372377  0.39103845     1.00470
C1476       C  0.71710128  0.65574919  0.38662673     1.13400
C1477       C  0.71351388  0.74097051  0.29276555     1.04180
O1478       O  0.68273582  0.75335701  0.16731736    -0.95430
O1479       O  0.66960205  0.72873546  0.11008729    -0.91180
O1480       O  0.67042790  0.70235682  0.05872964    -0.84320
C1481       C  0.66777355  0.71984496  0.06302461     1.10820
O1482       O  0.75273302  0.68423005  0.25434946    -0.97410
Zr1483     Zr  0.72502426  0.67881602  0.19452781     1.88940
O1484       O  0.70096881  0.67079805  0.05295838    -0.74060
O1485       O  0.71451591  0.72346788  0.11832239    -0.53320
O1486       O  0.74824707  0.69788088  0.14483177    -0.98000
O1487       O  0.74161900  0.64954711  0.20337220    -0.55220
O1488       O  0.72913480  0.66771408  0.09858743    -0.74570
C1489       C  0.71889287  0.66785810  0.05331255     0.97770
O1490       O  0.65043931  0.66927280  0.06359502    -0.63390
O1491       O  0.66330702  0.63868849  0.34671910    -0.58200
O1492       O  0.66745383  0.64549064  0.11810206    -0.94880
O1493       O  0.66251985  0.63518699  0.21039034    -0.93310
O1494       O  0.63506458  0.67959682  0.35767110    -0.93660
O1495       O  0.62057346  0.68268726  0.25088701    -0.92450
C1496       C  0.65994365  0.63454146  0.15486980     1.16610
H1497       H  0.67015208  0.67457485  0.36924825     0.32560
H1498       H  0.65244684  0.70674897  0.16078608     0.43410
H1499       H  0.70206389  0.64805526  0.16236748     0.36930
H1500       H  0.72591949  0.71296619  0.24323905     0.33410
H1501       H  0.62101412  0.72119582  0.27814397     0.25200
H1502       H  0.71162795  0.73497826  0.09691302     0.31140
H1503       H  0.75748641  0.68915412  0.12843360     0.37050
H1504       H  0.63287092  0.68932851  0.38668317     0.31510
H1505       H  0.66111852  0.62596176  0.33346292     0.30390
H1506       H  0.68883910  0.61301885  0.27568553     0.32070
H1507       H  0.75242560  0.65060877  0.17651009     0.31030
H1508       H  0.62245193  0.67771673  0.21141339     0.35030
H1509       H  0.64121398  0.67934586  0.06863401     0.27770
H1510       H  0.71475844  0.71636999  0.43801603     0.32000
H1511       H  0.76338884  0.67857094  0.23339549     0.34850
H1512       H  0.67110434  0.63724146  0.38212917     0.27460
H1513       H  0.65534674  0.67095237  0.02366808     0.40330
H1514       H  0.67141614  0.75621296  0.19057683     0.30390
H1515       H  0.63620343  0.72920976  0.23580049     0.38000
H1516       H  0.73336274  0.64026989  0.18538207     0.29850
H1517       H  0.72604727  0.72570981  0.14088305     0.29920
H1518       H  0.73190340  0.70612564  0.41036590     0.30180
Zr1519     Zr  0.81815884  0.67234917  0.81561052     2.17510
O1520       O  0.82057914  0.64632191  0.88294311    -0.52170
O1521       O  0.82855360  0.69591628  0.88401680    -0.75380
O1522       O  0.85014041  0.66272318  0.83028935    -0.82160
O1523       O  0.76817345  0.66239618  0.82401520    -0.83910
O1524       O  0.86358380  0.66040154  0.74069692    -0.79530
O1525       O  0.79176063  0.66983339  0.88421894    -0.91170
O1526       O  0.83076370  0.72269737  0.83342650    -0.77130
O1527       O  0.83616974  0.69389892  0.75999576    -0.86620
O1528       O  0.79742838  0.69741165  0.79898988    -0.86310
O1529       O  0.82709504  0.65716306  0.72653215    -0.73070
O1530       O  0.79287428  0.65883399  0.76162483    -0.85200
Zr1531     Zr  0.79765799  0.69147561  0.59981726     2.26420
Zr1532     Zr  0.84491794  0.67935708  0.67051697     2.06270
Zr1533     Zr  0.77207731  0.68420348  0.74538922     2.10050
Zr1534     Zr  0.81516910  0.71868012  0.74252081     1.78760
O1535       O  0.73963001  0.67429100  0.75713657    -0.94010
O1536       O  0.84358053  0.73566704  0.71762871    -0.41810
O1537       O  0.78935767  0.70646612  0.68974822    -0.78450
O1538       O  0.82336842  0.70441174  0.65441651    -0.97130
O1539       O  0.81927094  0.66670282  0.61492269    -0.90440
O1540       O  0.78061735  0.66940067  0.65723172    -0.93280
C1541       C  0.83271904  0.71310147  0.87963984     1.00470
C1542       C  0.77467461  0.66491100  0.87490813     1.13400
C1543       C  0.86267083  0.65656580  0.79579388     1.04180
O1544       O  0.87459110  0.69525140  0.68535035    -0.95430
O1545       O  0.85112991  0.69919259  0.58286813    -0.91180
O1546       O  0.82276619  0.70300073  0.53806393    -0.84320
C1547       C  0.84049534  0.70592264  0.54189245     1.10820
O1548       O  0.81281730  0.61629785  0.71691527    -0.97410
Zr1549     Zr  0.80184732  0.64478546  0.67125033     1.88940
O1550       O  0.78192420  0.66847246  0.54033450    -0.74060
O1551       O  0.86034424  0.65766307  0.60626623    -0.53320
O1552       O  0.82253130  0.62832529  0.60530881    -0.98000
O1553       O  0.77675253  0.62436377  0.70346611    -0.55220
O1554       O  0.78211631  0.64053757  0.58541134    -0.74570
C1555       C  0.77676376  0.65160333  0.54480681     0.97770
O1556       O  0.79132172  0.70633645  0.50614460    -0.63390
O1557       O  0.75773941  0.70915900  0.79945070    -0.58200
O1558       O  0.77071357  0.71188416  0.60432598    -0.94880
O1559       O  0.75529619  0.69178776  0.65697749    -0.93310
O1560       O  0.79610008  0.74050716  0.79633872    -0.93660
O1561       O  0.80848546  0.74702788  0.68928850    -0.92450
C1562       C  0.75694302  0.70802945  0.63753268     1.16610
H1563       H  0.79337298  0.70265556  0.83526805     0.32560
H1564       H  0.82856923  0.71505273  0.63535023     0.43410
H1565       H  0.76921807  0.66459099  0.64098391     0.36930
H1566       H  0.83428112  0.64627862  0.73589194     0.33410
H1567       H  0.84353719  0.74640458  0.74375001     0.25200
H1568       H  0.87385454  0.66076611  0.60897595     0.31140
H1569       H  0.81422211  0.61969449  0.58448778     0.37050
H1570       H  0.79669321  0.73645772  0.83747606     0.31510
H1571       H  0.75727638  0.70480398  0.84013180     0.30390
H1572       H  0.73532724  0.67979318  0.79399735     0.32070
H1573       H  0.77385741  0.61659842  0.66953338     0.31030
H1574       H  0.80839931  0.74344555  0.64790502     0.35030
H1575       H  0.77830361  0.70286237  0.49578163     0.27770
H1576       H  0.82945623  0.65020139  0.91361821     0.32000
H1577       H  0.80945279  0.60637287  0.68967865     0.34850
H1578       H  0.76705545  0.71920005  0.79941511     0.27460
H1579       H  0.79066498  0.71970365  0.51387307     0.40330
H1580       H  0.87505431  0.69767070  0.72758259     0.30390
H1581       H  0.85403337  0.72785812  0.73207363     0.38000
H1582       H  0.76564642  0.63248224  0.70745424     0.29850
H1583       H  0.85924417  0.64564396  0.62653725     0.29920
H1584       H  0.82727936  0.63657733  0.86140612     0.30180
Zr1585     Zr  0.93878804  0.42967510  0.58309500     2.17510
O1586       O  0.91752183  0.42381263  0.66441491    -0.52170
O1587       O  0.96359303  0.42108820  0.65551635    -0.75380
O1588       O  0.92375527  0.40000921  0.58124963    -0.82160
O1589       O  0.93076694  0.48147098  0.58763069    -0.83910
O1590       O  0.92429264  0.38768836  0.49049169    -0.79530
O1591       O  0.92751158  0.45593274  0.64272791    -0.91170
O1592       O  0.98907455  0.41242733  0.60390319    -0.77130
O1593       O  0.95937550  0.41145614  0.52433377    -0.86620
O1594       O  0.96637704  0.44740828  0.57410133    -0.86310
O1595       O  0.92366619  0.42512934  0.48898752    -0.73070
O1596       O  0.92847350  0.45659614  0.53181566    -0.85200
Zr1597     Zr  0.96307908  0.45374450  0.36991342     2.26420
Zr1598     Zr  0.94498060  0.40726756  0.43003054     2.06270
Zr1599     Zr  0.95630970  0.47452115  0.52495284     2.10050
Zr1600     Zr  0.98684426  0.42966709  0.51436887     1.78760
O1601       O  0.95193666  0.50768791  0.52878538    -0.94010
O1602       O  0.00129279  0.40053590  0.48748212    -0.41810
O1603       O  0.97745870  0.45736686  0.46589397    -0.78450
O1604       O  0.97272262  0.42602789  0.42164139    -0.97130
O1605       O  0.93561451  0.43496800  0.37920877    -0.90440
O1606       O  0.94157352  0.47115728  0.43179533    -0.93280
C1607       C  0.98061427  0.41491675  0.65195342     1.00470
C1608       C  0.92531684  0.47343084  0.63384290     1.13400
C1609       C  0.91892868  0.38792463  0.54410694     1.04180
O1610       O  0.95941775  0.37689045  0.43482594    -0.95430
O1611       O  0.96453778  0.40285745  0.34122626    -0.91180
O1612       O  0.95913497  0.42994085  0.29783579    -0.84320
C1613       C  0.96795457  0.41459135  0.30005646     1.10820
O1614       O  0.88360484  0.44504865  0.47625601    -0.97410
Zr1615     Zr  0.91455206  0.45246920  0.43719308     1.88940
O1616       O  0.94228545  0.47319899  0.30951319    -0.74060
O1617       O  0.92139493  0.39649325  0.36174327    -0.53320
O1618       O  0.89642036  0.43466999  0.36776813    -0.98000
O1619       O  0.89637513  0.47898811  0.46888919    -0.55220
O1620       O  0.91339940  0.47327694  0.35222514    -0.74570
C1621       C  0.92514065  0.47890440  0.31342944     0.97770
O1622       O  0.99458990  0.45182685  0.32788366    -0.63390
O1623       O  0.98151493  0.48477849  0.58874321    -0.58200
O1624       O  0.98035139  0.48255285  0.34977241    -0.94880
O1625       O  0.96716057  0.47835800  0.42990728    -0.93310
O1626       O  0.00965758  0.44799432  0.56707661    -0.93660
O1627       O  0.01775307  0.43228250  0.46974379    -0.92450
C1628       C  0.97812341  0.48811748  0.40087433     1.16610
H1629       H  0.97174938  0.45058102  0.61088481     0.32560
H1630       H  0.98277994  0.42015879  0.40082489     0.43410
H1631       H  0.93690005  0.48305653  0.41883919     0.36930
H1632       H  0.91186904  0.41884918  0.49434079     0.33410
H1633       H  0.01103986  0.39821598  0.51743051     0.25200
H1634       H  0.92388850  0.38314299  0.35843528     0.31140
H1635       H  0.88966063  0.44393923  0.34381622     0.37050
H1636       H  0.01782145  0.43888981  0.58715025     0.31510
H1637       H  0.98259612  0.49817317  0.58224901     0.30390
H1638       H  0.95186171  0.51082074  0.57054312     0.32070
H1639       H  0.88876741  0.48272787  0.43470319     0.31030
H1640       H  0.01537397  0.43197159  0.42741266     0.35030
H1641       H  0.00322652  0.45894139  0.35253113     0.27770
H1642       H  0.92195952  0.41231225  0.68338008     0.32000
H1643       H  0.87443582  0.44975496  0.44728885     0.34850
H1644       H  0.97614068  0.48370079  0.62827348     0.27460
H1645       H  0.99866506  0.43905779  0.33593931     0.40330
H1646       H  0.96043397  0.37402817  0.47685128     0.30390
H1647       H  0.99154844  0.39117055  0.49551516     0.38000
H1648       H  0.90574944  0.48892685  0.47307450     0.29850
H1649       H  0.90936979  0.39725884  0.38317961     0.29920
H1650       H  0.90517037  0.42077187  0.64714275     0.30180
Zr1651     Zr  0.95611142  0.54916117  0.09365369     2.17510
O1652       O  0.95667631  0.52616158  0.17172390    -0.52170
O1653       O  0.97422951  0.57057676  0.15072892    -0.75380
O1654       O  0.98540653  0.53253594  0.10025116    -0.82160
O1655       O  0.90548928  0.54201780  0.10635942    -0.83910
O1656       O  0.99552843  0.55275962  0.03729321    -0.79530
O1657       O  0.93046740  0.54818468  0.16211150    -0.91170
O1658       O  0.98084408  0.59447403  0.09027901    -0.77130
O1659       O  0.97433731  0.56879539  0.03195435    -0.86620
O1660       O  0.93684481  0.57575269  0.07776687    -0.86310
O1661       O  0.96225074  0.53259280  0.00461607    -0.73070
O1662       O  0.92860831  0.53858289  0.04429572    -0.85200
Zr1663     Zr  0.93561149  0.56720221  0.87465371     2.26420
Zr1664     Zr  0.98036331  0.55293880  0.94334004     2.06270
Zr1665     Zr  0.90964390  0.56507842  0.02551025     2.10050
Zr1666     Zr  0.95556874  0.59506963  0.01730058     1.78760
O1667       O  0.87802153  0.55339113  0.00957100    -0.94010
O1668       O  0.98019283  0.61543401  0.98162032    -0.41810
O1669       O  0.92918096  0.58353694  0.96403441    -0.78450
O1670       O  0.96189610  0.58009154  0.92672303    -0.97130
O1671       O  0.95364810  0.54064212  0.89429815    -0.90440
O1672       O  0.91585261  0.54898486  0.93658364    -0.93280
C1673       C  0.98403148  0.58459320  0.13591254     1.00470
C1674       C  0.91533362  0.53926472  0.15305641     1.13400
C1675       C  0.99781953  0.53756249  0.06402939     1.04180
O1676       O  0.01381224  0.55650953  0.92462657    -0.95430
O1677       O  0.98875750  0.57008747  0.85667686    -0.91180
O1678       O  0.96164603  0.57844999  0.81193193    -0.84320
C1679       C  0.97976367  0.57821417  0.81553990     1.10820
O1680       O  0.93865817  0.49425349  0.01443798    -0.97410
Zr1681     Zr  0.93444615  0.52240183  0.95774842     1.88940
O1682       O  0.92852045  0.53979734  0.81306969    -0.74060
O1683       O  0.98908464  0.52416452  0.89717278    -0.53320
O1684       O  0.95306715  0.49911802  0.90859420    -0.98000
O1685       O  0.90455348  0.50842128  0.98397074    -0.55220
O1686       O  0.91626686  0.51847915  0.87261281    -0.74570
C1687       C  0.92077943  0.52393857  0.82235151     0.97770
O1688       O  0.92360583  0.58062094  0.78428270    -0.63390
O1689       O  0.89590593  0.58576615  0.09651093    -0.58200
O1690       O  0.90861618  0.58693661  0.87187521    -0.94880
O1691       O  0.89512672  0.58900305  0.96135448    -0.93310
O1692       O  0.94073102  0.61451112  0.08970662    -0.93660
O1693       O  0.94404754  0.62366948  0.97420599    -0.92450
C1694       C  0.89682165  0.59387482  0.90728801     1.16610
H1695       H  0.93354705  0.58144544  0.11409232     0.32560
H1696       H  0.96793207  0.59006235  0.90642574     0.43410
H1697       H  0.90408322  0.54626048  0.91761172     0.36930
H1698       H  0.96926433  0.52155615  0.01216186     0.33410
H1699       H  0.98161140  0.62480237  0.01223935     0.25200
H1700       H  0.00296010  0.52411339  0.89534659     0.31140
H1701       H  0.95478001  0.50388471  0.86852434     0.37050
H1702       H  0.95054025  0.62352855  0.10016221     0.31510
H1703       H  0.88253386  0.58687089  0.08506030     0.30390
H1704       H  0.86986538  0.56443792  0.00860213     0.32070
H1705       H  0.90351432  0.49712606  0.96062236     0.31030
H1706       H  0.93934119  0.62014662  0.93538093     0.35030
H1707       H  0.92991276  0.59268241  0.77985559     0.27770
H1708       H  0.96794836  0.52879400  0.19547133     0.32000
H1709       H  0.94167560  0.49852558  0.05407397     0.34850
H1710       H  0.89568733  0.57856029  0.13321193     0.27460
H1711       H  0.92895283  0.57297026  0.75299630     0.40330
H1712       H  0.01754390  0.56733642  0.94765605     0.30390
H1713       H  0.99183146  0.60798153  0.98434230     0.38000
H1714       H  0.89474600  0.51676318  0.96819697     0.29850
H1715       H  0.98577434  0.51434984  0.92520139     0.29920
H1716       H  0.95928375  0.51424699  0.15285171     0.30180
Zr1717     Zr  0.05301637  0.45146596  0.87822897     2.17510
O1718       O  0.02350249  0.45530779  0.82544506    -0.52170
O1719       O  0.07247771  0.46979986  0.81391773    -0.75380
O1720       O  0.03659417  0.48055551  0.89066610    -0.82160
O1721       O  0.04729254  0.40172253  0.85345663    -0.83910
O1722       O  0.06007001  0.48988040  0.94363697    -0.79530
O1723       O  0.05330620  0.42777487  0.80522636    -0.91170
O1724       O  0.09965204  0.47428589  0.86323844    -0.77130
O1725       O  0.07516177  0.46813763  0.93465489    -0.86620
O1726       O  0.08055765  0.43235080  0.88265386    -0.86310
O1727       O  0.03921407  0.45482701  0.97294890    -0.73070
O1728       O  0.04408566  0.42281585  0.92268499    -0.85200
Zr1729     Zr  0.07661080  0.42628914  0.08591845     2.26420
Zr1730     Zr  0.06205950  0.47118858  0.02925536     2.06270
Zr1731     Zr  0.07172968  0.40430262  0.93233317     2.10050
Zr1732     Zr  0.10213932  0.44958128  0.93857951     1.78760
O1733       O  0.06134223  0.37266026  0.94588177    -0.94010
O1734       O  0.12152950  0.47438681  0.97581023    -0.41810
O1735       O  0.09170360  0.42279695  0.99160682    -0.78450
O1736       O  0.08980862  0.45246572  0.03583085    -0.97130
O1737       O  0.04931818  0.44418809  0.07422521    -0.90440
O1738       O  0.05664229  0.40802473  0.02533106    -0.93280
C1739       C  0.08779092  0.47861240  0.82266581     1.00470
C1740       C  0.04393180  0.41290635  0.81044882     1.13400
C1741       C  0.04361111  0.49239822  0.92467779     1.04180
O1742       O  0.06465245  0.50332647  0.05703245    -0.95430
O1743       O  0.08337590  0.47786679  0.10516325    -0.91180
O1744       O  0.08275652  0.45128209  0.15681925    -0.84320
C1745       C  0.08531479  0.46882579  0.15214580     1.10820
O1746       O  0.00111464  0.43348105  0.95597565    -0.97410
Zr1747     Zr  0.02914117  0.42629773  0.01315630     1.88940
O1748       O  0.04998468  0.42008877  0.15454533    -0.74060
O1749       O  0.03502234  0.47816609  0.08993580    -0.53320
O1750       O  0.00299686  0.44038905  0.06447918    -0.98000
O1751       O  0.01593914  0.39745976  0.97870717    -0.55220
O1752       O  0.02626109  0.40876589  0.10094384    -0.74570
C1753       C  0.03325835  0.41331180  0.14945163     0.97770
O1754       O  0.09963901  0.41649283  0.15844954    -0.63390
O1755       O  0.09158144  0.39168274  0.85632625    -0.58200
O1756       O  0.08960948  0.39580834  0.08497907    -0.94880
O1757       O  0.09847183  0.39183074  0.99182156    -0.93310
O1758       O  0.12054777  0.43473951  0.86305468    -0.93660
O1759       O  0.13355339  0.43956732  0.96673726    -0.92450
C1760       C  0.10108356  0.38964652  0.04726487     1.16610
H1761       H  0.08556895  0.42996121  0.84449102     0.32560
H1762       H  0.10052951  0.45681092  0.05735937     0.43410
H1763       H  0.05398457  0.39622578  0.04307735     0.36930
H1764       H  0.02774446  0.46172223  0.97064616     0.33410
H1765       H  0.12899209  0.47862968  0.94199654     0.25200
H1766       H  0.03365056  0.49168578  0.09033001     0.31140
H1767       H  0.99516933  0.42996333  0.07804612     0.37050
H1768       H  0.12189712  0.44423244  0.83223267     0.31510
H1769       H  0.09240917  0.37838426  0.86563291     0.30390
H1770       H  0.06705914  0.36863967  0.98313948     0.32070
H1771       H  0.00744121  0.39328552  0.01016754     0.31030
H1772       H  0.13161680  0.43216120  0.00254584     0.35030
H1773       H  0.10983628  0.42570998  0.15610844     0.27770
H1774       H  0.02449405  0.46673514  0.80189430     0.32000
H1775       H  0.99169311  0.42402480  0.96647326     0.34850
H1776       H  0.08378950  0.39234629  0.82070131     0.27460
H1777       H  0.09355709  0.41860811  0.19646975     0.40330
H1778       H  0.07657121  0.50759823  0.03937920     0.30390
H1779       H  0.11256045  0.48454154  0.98305744     0.38000
H1780       H  0.02648442  0.38856575  0.97963161     0.29850
H1781       H  0.02397635  0.47356571  0.06852663     0.29920
H1782       H  0.01360392  0.45766542  0.85466423     0.30180
Zr1783     Zr  0.08055098  0.56807438  0.38609549     2.17510
O1784       O  0.08873428  0.58913778  0.30677267    -0.52170
O1785       O  0.08612150  0.54187570  0.31923250    -0.75380
O1786       O  0.11309355  0.57759355  0.38478917    -0.82160
O1787       O  0.02853274  0.57390737  0.35084046    -0.83910
O1788       O  0.12593114  0.57702581  0.47526142    -0.79530
O1789       O  0.05752027  0.57783584  0.31195175    -0.91170
O1790       O  0.08373226  0.51527174  0.37128059    -0.77130
O1791       O  0.09596755  0.54625984  0.44854621    -0.86620
O1792       O  0.05814682  0.54468486  0.40225157    -0.86310
O1793       O  0.08772300  0.58410652  0.47579530    -0.73070
O1794       O  0.05473313  0.58396680  0.43149673    -0.85200
Zr1795     Zr  0.05351189  0.55208286  0.59621019     2.26420
Zr1796     Zr  0.10289298  0.56164928  0.53842999     2.06270
Zr1797     Zr  0.03217579  0.56012019  0.44508512     2.10050
Zr1798     Zr  0.07321966  0.52294251  0.46529214     1.78760
O1799       O  0.00385133  0.57875199  0.43399357    -0.94010
O1800       O  0.10259741  0.50656069  0.48338885    -0.41810
O1801       O  0.04633884  0.53703637  0.50638279    -0.78450
O1802       O  0.08034650  0.53735765  0.55372131    -0.97130
O1803       O  0.07627419  0.57586189  0.58434931    -0.90440
O1804       O  0.03932424  0.57484524  0.53385746    -0.93280
C1805       C  0.08614439  0.52414580  0.32411659     1.00470
C1806       C  0.03945502  0.57861321  0.30938592     1.13400
C1807       C  0.12624682  0.58137454  0.42084901     1.04180
O1808       O  0.13190512  0.54386606  0.53573150    -0.95430
O1809       O  0.10570970  0.54414974  0.63063712    -0.91180
O1810       O  0.07816271  0.55209091  0.67030207    -0.84320
C1811       C  0.09360639  0.54292271  0.67202247     1.10820
O1812       O  0.07407184  0.62612791  0.47836561    -0.97410
Zr1813     Zr  0.06149636  0.59833118  0.52373567     1.88940
O1814       O  0.03648346  0.57465757  0.65025539    -0.74060
O1815       O  0.11670118  0.58377985  0.60450451    -0.53320
O1816       O  0.08082254  0.61552334  0.59155330    -0.98000
O1817       O  0.03682846  0.61851383  0.48617918    -0.55220
O1818       O  0.04017267  0.60289660  0.60806862    -0.74570
C1819       C  0.03286144  0.59184438  0.64609680     0.97770
O1820       O  0.04634092  0.53036745  0.67422019    -0.63390
O1821       O  0.01543452  0.53579629  0.39477044    -0.58200
O1822       O  0.02449443  0.53473129  0.58471397    -0.94880
O1823       O  0.01161140  0.55533086  0.52659272    -0.93310
O1824       O  0.05273011  0.49974616  0.42487383    -0.93660
O1825       O  0.06630240  0.49679256  0.52855691    -0.92450
C1826       C  0.01146131  0.53952191  0.54943117     1.16610
H1827       H  0.05421959  0.53925489  0.36625341     0.32560
H1828       H  0.08454946  0.52722028  0.57776246     0.43410
H1829       H  0.02788132  0.58053372  0.54663173     0.36930
H1830       H  0.09602934  0.59425921  0.46762660     0.33410
H1831       H  0.10051103  0.49413775  0.46741067     0.25200
H1832       H  0.13043403  0.58225298  0.59960147     0.31140
H1833       H  0.07206121  0.62429605  0.61001914     0.37050
H1834       H  0.04141126  0.50676498  0.41302836     0.31510
H1835       H  0.00385405  0.54175112  0.37990760     0.30390
H1836       H  0.99477583  0.57098304  0.41287883     0.32070
H1837       H  0.03365788  0.62671638  0.51883386     0.31030
H1838       H  0.05818931  0.50187560  0.55942709     0.35030
H1839       H  0.03368222  0.53356683  0.68887811     0.27770
H1840       H  0.09919195  0.58328443  0.28537418     0.32000
H1841       H  0.06926473  0.63647408  0.50178059     0.34850
H1842       H  0.02275383  0.53336040  0.35922499     0.27460
H1843       H  0.04506038  0.51813103  0.65613276     0.40330
H1844       H  0.12791253  0.53094937  0.54153547     0.30390
H1845       H  0.11180001  0.51227563  0.45656861     0.38000
H1846       H  0.02571396  0.61046131  0.48213449     0.29850
H1847       H  0.11384213  0.59592041  0.58681822     0.29920
H1848       H  0.09422057  0.60017718  0.32502559     0.30180
Zr1849     Zr  0.31434907  0.78873729  0.34546465     2.17510
O1850       O  0.29832757  0.79035748  0.43907958    -0.52170
O1851       O  0.33365469  0.76603535  0.39621397    -0.75380
O1852       O  0.28972079  0.76615591  0.35670673    -0.82160
O1853       O  0.31100331  0.83823294  0.34351340    -0.83910
O1854       O  0.30456579  0.74814812  0.29600571    -0.79530
O1855       O  0.31632777  0.81540828  0.40674434    -0.91170
O1856       O  0.36006529  0.75962688  0.34496491    -0.77130
O1857       O  0.33140273  0.76764502  0.28739574    -0.86620
O1858       O  0.34357121  0.80349467  0.32375652    -0.86310
O1859       O  0.29527219  0.78504116  0.25876948    -0.73070
O1860       O  0.30621803  0.81585400  0.28984528    -0.85200
Zr1861     Zr  0.33365084  0.80191665  0.12152828     2.26420
Zr1862     Zr  0.31239044  0.76283433  0.20387238     2.06270
Zr1863     Zr  0.33504832  0.83038709  0.26728280     2.10050
Zr1864     Zr  0.36033088  0.78203996  0.26537816     1.78760
O1865       O  0.32878224  0.86321616  0.25765439    -0.94010
O1866       O  0.37667470  0.75485144  0.23017461    -0.41810
O1867       O  0.35178817  0.80849825  0.20839109    -0.78450
O1868       O  0.34254823  0.77555358  0.17936719    -0.97130
O1869       O  0.30415226  0.78931547  0.14741664    -0.90440
O1870       O  0.31799113  0.82513636  0.17806894    -0.93280
C1871       C  0.34866039  0.75669123  0.38714596     1.00470
C1872       C  0.30775583  0.83021998  0.39306900     1.13400
C1873       C  0.28962064  0.75229128  0.32337131     1.04180
O1874       O  0.31273509  0.72946870  0.19930058    -0.95430
O1875       O  0.32584019  0.75014184  0.11828034    -0.91180
O1876       O  0.33556670  0.77348270  0.06010022    -0.84320
C1877       C  0.33181136  0.75625511  0.06958729     1.10820
O1878       O  0.26042830  0.81294345  0.26414901    -0.97410
Zr1879     Zr  0.28858696  0.81212242  0.20386811     1.88940
O1880       O  0.30782207  0.81193876  0.05616717    -0.74060
O1881       O  0.28277875  0.75932631  0.15282193    -0.53320
O1882       O  0.26131214  0.79835448  0.15766888    -0.98000
O1883       O  0.28080573  0.84390296  0.22694959    -0.55220
O1884       O  0.28484662  0.82533758  0.10925854    -0.74570
C1885       C  0.29194596  0.82036930  0.06119179     0.97770
O1886       O  0.35279221  0.80199856  0.03348648    -0.63390
O1887       O  0.35918515  0.84005800  0.33556677    -0.58200
O1888       O  0.35435806  0.82835927  0.11044330    -0.94880
O1889       O  0.35646808  0.84410852  0.19535187    -0.93310
O1890       O  0.38316072  0.79551116  0.33132873    -0.93660
O1891       O  0.38977996  0.78896197  0.21617470    -0.92450
C1892       C  0.36114836  0.84119780  0.14208167     1.16610
H1893       H  0.35019398  0.80643237  0.35909434     0.32560
H1894       H  0.35062256  0.76746770  0.15773072     0.43410
H1895       H  0.31656226  0.83645681  0.15616865     0.36930
H1896       H  0.28278540  0.78097130  0.26681267     0.33410
H1897       H  0.38604206  0.75184975  0.26069012     0.25200
H1898       H  0.28007250  0.74602751  0.15476837     0.31140
H1899       H  0.25335355  0.80881751  0.14478139     0.37050
H1900       H  0.39062627  0.78492735  0.34595438     0.31510
H1901       H  0.36319290  0.85230637  0.32123025     0.30390
H1902       H  0.33106411  0.86822456  0.29686811     0.32070
H1903       H  0.27301091  0.84831850  0.19397908     0.31030
H1904       H  0.38611720  0.79155113  0.17538573     0.35030
H1905       H  0.36603795  0.80298925  0.04632487     0.27770
H1906       H  0.29946259  0.77795791  0.45691645     0.32000
H1907       H  0.25188968  0.82199745  0.24542088     0.34850
H1908       H  0.35223598  0.84264408  0.37183118     0.27460
H1909       H  0.34997502  0.81369066  0.01278947     0.40330
H1910       H  0.32555201  0.72589616  0.21192160     0.30390
H1911       H  0.36728167  0.74485883  0.23296700     0.38000
H1912       H  0.29275263  0.85073319  0.22305739     0.29850
H1913       H  0.27336660  0.76516423  0.17807439     0.29920
H1914       H  0.28479105  0.79190312  0.43012502     0.30180
Zr1915     Zr  0.19431898  0.82550350  0.80977186     2.17510
O1916       O  0.19506554  0.85387343  0.86532914    -0.52170
O1917       O  0.18407554  0.80374813  0.88666663    -0.75380
O1918       O  0.16327979  0.83808999  0.82004422    -0.82160
O1919       O  0.24650664  0.82464891  0.82707028    -0.83910
O1920       O  0.14667974  0.83370222  0.73698518    -0.79530
O1921       O  0.22007354  0.82657102  0.88086197    -0.91170
O1922       O  0.16811250  0.78536633  0.82881917    -0.77130
O1923       O  0.17315103  0.80566684  0.75911712    -0.86620
O1924       O  0.21069132  0.79707680  0.80316490    -0.86310
O1925       O  0.18769466  0.83912539  0.71496140    -0.73070
O1926       O  0.22163221  0.83325625  0.75336339    -0.85200
Zr1927     Zr  0.21291901  0.79704453  0.60232414     2.26420
Zr1928     Zr  0.16736469  0.81822736  0.66400736     2.06270
Zr1929     Zr  0.23811391  0.80469038  0.74843362     2.10050
Zr1930     Zr  0.18956084  0.77752279  0.75274110     1.78760
O1931       O  0.27080054  0.81431723  0.74140790    -0.94010
O1932       O  0.16048566  0.76118228  0.73192310    -0.41810
O1933       O  0.21708206  0.78457563  0.69899446    -0.78450
O1934       O  0.18489858  0.78996102  0.65836996    -0.97130
O1935       O  0.19504282  0.82496726  0.60652303    -0.90440
O1936       O  0.23274994  0.81770272  0.65470446    -0.93280
C1937       C  0.17402272  0.78932104  0.87915776     1.00470
C1938       C  0.23807820  0.82649061  0.87554257     1.13400
C1939       C  0.14821604  0.83952722  0.78999493     1.04180
O1940       O  0.13451791  0.80916795  0.65810302    -0.95430
O1941       O  0.15860744  0.79764819  0.58177164    -0.91180
O1942       O  0.18620911  0.78759146  0.54305157    -0.84320
C1943       C  0.16817901  0.78797079  0.54506269     1.10820
O1944       O  0.20796319  0.87645176  0.69112562    -0.97410
Zr1945     Zr  0.21527615  0.84554257  0.65749206     1.88940
O1946       O  0.23370558  0.81545032  0.53781065    -0.74060
O1947       O  0.15953099  0.84442828  0.60197105    -0.53320
O1948       O  0.19838627  0.86221060  0.58128113    -0.98000
O1949       O  0.24271479  0.86357355  0.68433805    -0.55220
O1950       O  0.23677754  0.84420727  0.57422296    -0.74570
C1951       C  0.24120083  0.83159985  0.53782629     0.97770
O1952       O  0.22188129  0.77913418  0.51741341    -0.63390
O1953       O  0.24972809  0.78193536  0.81818621    -0.58200
O1954       O  0.23374202  0.77105007  0.62242297    -0.94880
O1955       O  0.25360624  0.78768961  0.67214689    -0.93310
O1956       O  0.20514199  0.75786005  0.82458706    -0.93660
O1957       O  0.19041849  0.74647755  0.71482196    -0.92450
C1958       C  0.24739902  0.77194949  0.65842897     1.16610
H1959       H  0.21390791  0.79227656  0.84113541     0.32560
H1960       H  0.17811794  0.77979889  0.64245982     0.43410
H1961       H  0.24516498  0.81923924  0.63874438     0.36930
H1962       H  0.18106495  0.85058325  0.72047152     0.33410
H1963       H  0.15752173  0.75394256  0.76730694     0.25200
H1964       H  0.14728732  0.84117288  0.58442359     0.31140
H1965       H  0.20822670  0.86883910  0.55914815     0.37050
H1966       H  0.19766453  0.74641291  0.82626469     0.31510
H1967       H  0.25075039  0.78843611  0.85556264     0.30390
H1968       H  0.27672639  0.81006341  0.77810520     0.32070
H1969       H  0.24598664  0.87073634  0.64899429     0.31030
H1970       H  0.19189457  0.74817530  0.67237850     0.35030
H1971       H  0.21462497  0.76754404  0.51978496     0.27770
H1972       H  0.18688800  0.85160753  0.89938581     0.32000
H1973       H  0.21241228  0.88491840  0.66016280     0.34850
H1974       H  0.23942150  0.77300435  0.82387514     0.27460
H1975       H  0.21667828  0.78581455  0.48329238     0.40330
H1976       H  0.13331676  0.79893237  0.68651743     0.30390
H1977       H  0.15070837  0.77088205  0.73040153     0.38000
H1978       H  0.25296536  0.85441382  0.68840833     0.29850
H1979       H  0.15652684  0.85442875  0.62935408     0.29920
H1980       H  0.18824827  0.86310633  0.84137975     0.30180
Zr1981     Zr  0.29536031  0.68854001  0.84883750     2.17510
O1982       O  0.29296183  0.70651995  0.93733303    -0.52170
O1983       O  0.27337052  0.66845163  0.89972420    -0.75380
O1984       O  0.27037434  0.71137490  0.85098591    -0.82160
O1985       O  0.34704990  0.69381690  0.85991204    -0.83910
O1986       O  0.25367655  0.69598704  0.78781504    -0.79530
O1987       O  0.32238175  0.68581817  0.91240592    -0.91170
O1988       O  0.27026544  0.64144593  0.85204284    -0.77130
O1989       O  0.27607121  0.66976180  0.78955661    -0.86620
O1990       O  0.31302627  0.66090977  0.83415696    -0.86310
O1991       O  0.29201977  0.70585343  0.75892750    -0.73070
O1992       O  0.32353431  0.69810596  0.79865252    -0.85200
Zr1993     Zr  0.31471235  0.66862562  0.63289845     2.26420
Zr1994     Zr  0.27150479  0.68721490  0.70261360     2.06270
Zr1995     Zr  0.34098204  0.67060074  0.78300293     2.10050
Zr1996     Zr  0.29351414  0.64242552  0.77429955     1.78760
O1997       O  0.37387089  0.67967403  0.77898372    -0.94010
O1998       O  0.26737107  0.62463508  0.73607541    -0.41810
O1999       O  0.32102954  0.65204167  0.72262552    -0.78450
O2000       O  0.28735797  0.65860077  0.68498614    -0.97130
O2001       O  0.29888449  0.69664135  0.65036254    -0.90440
O2002       O  0.33590473  0.68614552  0.69156564    -0.93280
C2003       C  0.26562367  0.65274603  0.89204338     1.00470
C2004       C  0.33703380  0.69570345  0.90602661     1.13400
C2005       C  0.25710737  0.71099525  0.81376664     1.04180
O2006       O  0.23803017  0.68257606  0.68748010    -0.95430
O2007       O  0.26156790  0.67245109  0.61699944    -0.91180
O2008       O  0.28798993  0.66960308  0.56279065    -0.84320
C2009       C  0.26992717  0.67036757  0.56873919     1.10820
O2010       O  0.31914128  0.74224800  0.76501668    -0.97410
Zr2011     Zr  0.31985365  0.71404789  0.70876599     1.88940
O2012       O  0.33098836  0.69023763  0.56704191    -0.74060
O2013       O  0.26573979  0.71480508  0.64511281    -0.53320
O2014       O  0.30347591  0.73910480  0.65904213    -0.98000
O2015       O  0.35155207  0.72448237  0.73106016    -0.55220
O2016       O  0.33415220  0.71709775  0.61503099    -0.74570
C2017       C  0.33663264  0.70702746  0.57058143     0.97770
O2018       O  0.31395742  0.64584343  0.55576354    -0.63390
O2019       O  0.35112738  0.64738540  0.85336378    -0.58200
O2020       O  0.34261214  0.65003830  0.62990025    -0.94880
O2021       O  0.35862871  0.65116442  0.71561691    -0.93310
O2022       O  0.30828366  0.62139621  0.84370205    -0.93660
O2023       O  0.30288471  0.61371067  0.72901440    -0.92450
C2024       C  0.35641727  0.64568837  0.66294461     1.16610
H2025       H  0.31579360  0.65477253  0.87057739     0.32560
H2026       H  0.28037683  0.65008485  0.66146532     0.43410
H2027       H  0.34777935  0.68802859  0.67216042     0.36930
H2028       H  0.28697886  0.71795842  0.76409312     0.33410
H2029       H  0.26383828  0.61611584  0.76802300     0.25200
H2030       H  0.25192367  0.71551165  0.64092923     0.31140
H2031       H  0.30060522  0.73440844  0.61980240     0.37050
H2032       H  0.29794222  0.61337121  0.85736560     0.31510
H2033       H  0.36259361  0.64195128  0.83620203     0.30390
H2034       H  0.37935622  0.67506777  0.81591109     0.32070
H2035       H  0.36004157  0.71633474  0.70900393     0.31030
H2036       H  0.30577903  0.61716593  0.68828924     0.35030
H2037       H  0.31602922  0.63378268  0.57509804     0.27770
H2038       H  0.28009274  0.70476452  0.95270958     0.32000
H2039       H  0.32640906  0.75135191  0.74206250     0.34850
H2040       H  0.35575122  0.65452106  0.88686869     0.27460
H2041       H  0.32535526  0.64802437  0.53207734     0.40330
H2042       H  0.23527168  0.67073617  0.70724769     0.30390
H2043       H  0.25680470  0.63348997  0.73346993     0.38000
H2044       H  0.35353194  0.72078656  0.77205094     0.29850
H2045       H  0.26922524  0.72499700  0.67088195     0.29920
H2046       H  0.29376488  0.71964069  0.92563048     0.30180
Zr2047     Zr  0.17321105  0.68744219  0.32636606     2.17510
O2048       O  0.14536318  0.68442394  0.38731542    -0.52170
O2049       O  0.19544634  0.67937948  0.40395875    -0.75380
O2050       O  0.16338022  0.65556676  0.33729608    -0.82160
O2051       O  0.17629810  0.73952726  0.33916022    -0.83910
O2052       O  0.17150715  0.63988037  0.25627172    -0.79530
O2053       O  0.16400770  0.71472154  0.38554739    -0.91170
O2054       O  0.21437541  0.66212299  0.35112067    -0.77130
O2055       O  0.19350205  0.66665442  0.27533860    -0.86620
O2056       O  0.20316558  0.70223772  0.31980392    -0.86310
O2057       O  0.15953867  0.68121156  0.23158544    -0.73070
O2058       O  0.16708314  0.71447900  0.26903123    -0.85200
Zr2059     Zr  0.20483014  0.70454304  0.12006037     2.26420
Zr2060     Zr  0.18111947  0.66156161  0.18025921     2.06270
Zr2061     Zr  0.19695455  0.72931986  0.26410806     2.10050
Zr2062     Zr  0.22310092  0.68099485  0.26976438     1.78760
O2063       O  0.19032000  0.76217063  0.26207228    -0.94010
O2064       O  0.23743207  0.65116633  0.25109602    -0.41810
O2065       O  0.21767609  0.70847120  0.21606537    -0.78450
O2066       O  0.21114071  0.67650772  0.17424497    -0.97130
O2067       O  0.17541782  0.68877906  0.12319315    -0.90440
O2068       O  0.18364896  0.72451640  0.17067162    -0.93280
C2069       C  0.21045948  0.66975180  0.39887999     1.00470
C2070       C  0.16641988  0.73232233  0.37952521     1.13400
C2071       C  0.16488452  0.64064193  0.30812255     1.04180
O2072       O  0.18653740  0.62909938  0.16119062    -0.95430
O2073       O  0.19948733  0.65235267  0.09469979    -0.91180
O2074       O  0.21150676  0.67880422  0.05712156    -0.84320
C2075       C  0.20928686  0.66133996  0.05704780     1.10820
O2076       O  0.12267026  0.70361473  0.20982084    -0.97410
Zr2077     Zr  0.15451121  0.70867609  0.17409985     1.88940
O2078       O  0.18680042  0.72400068  0.05378095    -0.74060
O2079       O  0.15172164  0.65621117  0.12905105    -0.53320
O2080       O  0.13592779  0.69302224  0.10071572    -0.98000
O2081       O  0.13823603  0.73711434  0.19829715    -0.55220
O2082       O  0.15718440  0.72836556  0.08811363    -0.74570
C2083       C  0.17052230  0.73157924  0.05194614     0.97770
O2084       O  0.22558060  0.71233229  0.03900241    -0.63390
O2085       O  0.22129616  0.73868099  0.33223010    -0.58200
O2086       O  0.23089843  0.72538252  0.13652411    -0.94880
O2087       O  0.21269897  0.74426627  0.18390146    -0.93310
O2088       O  0.24444337  0.69466890  0.33985660    -0.93660
O2089       O  0.25523529  0.68085153  0.23375387    -0.92450
C2090       C  0.22909253  0.73881831  0.17130407     1.16610
H2091       H  0.20820831  0.70567757  0.35703154     0.32560
H2092       H  0.22080110  0.66916312  0.15652111     0.43410
H2093       H  0.18208494  0.73659429  0.15369117     0.36930
H2094       H  0.14771966  0.67491335  0.23690434     0.33410
H2095       H  0.24315831  0.64736860  0.28857798     0.25200
H2096       H  0.15462602  0.64614541  0.10181131     0.31140
H2097       H  0.12947745  0.70298080  0.07879741     0.37050
H2098       H  0.25215826  0.68426971  0.35456209     0.31510
H2099       H  0.21533114  0.73808812  0.37102763     0.30390
H2100       H  0.19575947  0.76697761  0.29850558     0.32070
H2101       H  0.13111999  0.74057152  0.16283451     0.31030
H2102       H  0.25395552  0.68089615  0.19090958     0.35030
H2103       H  0.23623971  0.70356042  0.04119026     0.27770
H2104       H  0.14890298  0.67565961  0.41868300     0.32000
H2105       H  0.11421862  0.70912225  0.18016632     0.34850
H2106       H  0.23067954  0.72862354  0.33251573     0.27460
H2107       H  0.21866858  0.70903809  0.00322360     0.40330
H2108       H  0.19791337  0.62587914  0.18399290     0.30390
H2109       H  0.22667723  0.64271868  0.24599283     0.38000
H2110       H  0.14832871  0.74642234  0.20085291     0.29850
H2111       H  0.14335957  0.65051733  0.15841143     0.29920
H2112       H  0.13603086  0.67780689  0.36343189     0.30180
C2113       C  0.24935486  0.64845957  0.92939865    -0.06970
C2114       C  0.25255518  0.64286139  0.98695122    -0.18090
C2115       C  0.23830175  0.64407295  0.02879492     0.10230
C2116       C  0.22058311  0.65155654  0.01330045    -0.06890
C2117       C  0.21697842  0.65564726  0.95469599    -0.18130
C2118       C  0.23106277  0.65400019  0.91261201     0.10260
S2119       S  0.24445733  0.63852510  0.10283306    -0.33090
S2120       S  0.22551101  0.66165842  0.83986234    -0.33100
H2121       H  0.23794467  0.64962878  0.81194395     0.28270
H2122       H  0.22672435  0.63140720  0.11723644     0.28270
H2123       H  0.26658117  0.63876714  0.00027697     0.18860
H2124       H  0.20361590  0.66175762  0.94249010     0.18870
C2125       C  0.22505856  0.66932050  0.44504204    -0.06970
C2126       C  0.23859491  0.65503978  0.44479437    -0.18090
C2127       C  0.25423711  0.65517578  0.48214360     0.10230
C2128       C  0.25693046  0.67029472  0.51893496    -0.06890
C2129       C  0.24387083  0.68481234  0.51742495    -0.18130
C2130       C  0.22790899  0.68435423  0.48248749     0.10260
S2131       S  0.26984123  0.63561891  0.48161445    -0.33090
S2132       S  0.21223795  0.70379339  0.48714983    -0.33100
H2133       H  0.19682351  0.69290254  0.50402663     0.28270
H2134       H  0.27428754  0.63591929  0.54107759     0.28270
H2135       H  0.23689393  0.64356132  0.41560091     0.18860
H2136       H  0.24569925  0.69639542  0.54620733     0.18870
C2137       C  0.17053811  0.77547190  0.92640573    -0.06970
C2138       C  0.16710991  0.75717128  0.90924509    -0.18090
C2139       C  0.16609080  0.74266490  0.94928369     0.10230
C2140       C  0.16797816  0.74633152  0.00870896    -0.06890
C2141       C  0.17067156  0.76451576  0.02679305    -0.18130
C2142       C  0.17205457  0.77905350  0.98654137     0.10260
S2143       S  0.16348376  0.71968093  0.92155727    -0.33090
S2144       S  0.17572404  0.80164802  0.01492077    -0.33100
H2145       H  0.16221944  0.80917049  0.97752974     0.28270
H2146       H  0.15491537  0.71213783  0.97131148     0.28270
H2147       H  0.16604487  0.75382434  0.86377791     0.18860
H2148       H  0.17242413  0.76731758  0.07265725     0.18870
C2149       C  0.15885481  0.77427213  0.50674370    -0.06970
C2150       C  0.15650489  0.77852396  0.44777936    -0.18090
C2151       C  0.15553840  0.76457700  0.40595282     0.10230
C2152       C  0.15871879  0.74586030  0.42225277    -0.06890
C2153       C  0.15881108  0.74150885  0.48164325    -0.18130
C2154       C  0.15831991  0.75544489  0.52365674     0.10260
S2155       S  0.15095447  0.77166499  0.33198458    -0.33090
S2156       S  0.15851447  0.74834469  0.59850772    -0.33100
H2157       H  0.14846277  0.76381981  0.61761659     0.28270
H2158       H  0.14326952  0.75472444  0.31506745     0.28270
H2159       H  0.15646872  0.79279334  0.43378071     0.18860
H2160       H  0.16061378  0.72733488  0.49555079     0.18870
C2161       C  0.25132611  0.72858877  0.78607011    -0.06970
C2162       C  0.26448001  0.74301919  0.78562000    -0.18090
C2163       C  0.26478506  0.75606489  0.74061674     0.10230
C2164       C  0.25011470  0.75631808  0.69935129    -0.06890
C2165       C  0.23575635  0.74305556  0.70399453    -0.18130
C2166       C  0.23616984  0.72931252  0.74697516     0.10260
S2167       S  0.28457473  0.77153660  0.73523175    -0.33090
S2168       S  0.21711923  0.71304429  0.75254389    -0.33100
H2169       H  0.21059070  0.71548217  0.69525565     0.28270
H2170       H  0.29134700  0.76875051  0.79208257     0.28270
H2171       H  0.27598536  0.74282498  0.81642433     0.18860
H2172       H  0.22420591  0.74331721  0.67360480     0.18870
C2173       C  0.33405085  0.74161452  0.02435517    -0.06970
C2174       C  0.34791446  0.74214203  0.98058779    -0.18090
C2175       C  0.35068048  0.72698514  0.94276896     0.10230
C2176       C  0.34001831  0.71057757  0.95052046    -0.06890
C2177       C  0.32793596  0.70977004  0.99850486    -0.18130
C2178       C  0.32327469  0.72531072  0.02978767     0.10260
S2179       S  0.36819962  0.72933004  0.88709929    -0.33090
S2180       S  0.30144118  0.72386685  0.06948485    -0.33100
H2181       H  0.29592382  0.74194606  0.05504715     0.28270
H2182       H  0.37519401  0.71135057  0.89460615     0.28270
H2183       H  0.35659465  0.75427320  0.97581653     0.18860
H2184       H  0.31992263  0.69741577  0.00745350     0.18870
C2185       C  0.34549339  0.71626109  0.51964192    -0.06970
C2186       C  0.33908944  0.71205506  0.46370315    -0.18090
C2187       C  0.34242117  0.72405196  0.41687888     0.10230
C2188       C  0.35180459  0.74086725  0.42634508    -0.06890
C2189       C  0.36019786  0.74397314  0.48020394    -0.18130
C2190       C  0.35762893  0.73157295  0.52656589     0.10260
S2191       S  0.33294123  0.71791590  0.34718231    -0.33090
S2192       S  0.36943396  0.73586750  0.59466831    -0.33100
H2193       H  0.38020816  0.75093312  0.57549054     0.28270
H2194       H  0.34569222  0.72831806  0.31401193     0.28270
H2195       H  0.33028911  0.70011478  0.45710307     0.18860
H2196       H  0.36773078  0.75669899  0.48691825     0.18870
C2197       C  0.24431623  0.74226712  0.21302434    -0.06970
C2198       C  0.25698100  0.72783975  0.22556722    -0.18090
C2199       C  0.27035842  0.72940221  0.26947616     0.10230
C2200       C  0.27144798  0.74581384  0.30094118    -0.06890
C2201       C  0.25710468  0.75900261  0.29434619    -0.18130
C2202       C  0.24441569  0.75801975  0.24835161     0.10260
S2203       S  0.28552479  0.71004304  0.28436277    -0.33090
S2204       S  0.23002481  0.77801307  0.23424979    -0.33100
H2205       H  0.22948302  0.77584374  0.17360840     0.28270
H2206       H  0.28955142  0.71513705  0.34185272     0.28270
H2207       H  0.25651993  0.71524663  0.20105166     0.18860
H2208       H  0.25729950  0.77144803  0.31986010     0.18870
C2209       C  0.25793925  0.83486161  0.49970916    -0.06970
C2210       C  0.27575747  0.83295923  0.52545265    -0.18090
C2211       C  0.29237962  0.83314339  0.49219296     0.10230
C2212       C  0.29148193  0.83553644  0.43107990    -0.06890
C2213       C  0.27367395  0.83865540  0.40571827    -0.18130
C2214       C  0.25699985  0.83832036  0.43918568     0.10260
S2215       S  0.31472707  0.82972297  0.52823986    -0.33090
S2216       S  0.23497242  0.84167472  0.40185081    -0.33100
H2217       H  0.22482563  0.84790638  0.45020681     0.28270
H2218       H  0.30761136  0.82671239  0.58450415     0.28270
H2219       H  0.27657080  0.83052717  0.57187756     0.18860
H2220       H  0.27258957  0.84021361  0.35898185     0.18870
C2221       C  0.27936604  0.82241142  0.01062140    -0.06970
C2222       C  0.26439109  0.80993920  0.00804083    -0.18090
C2223       C  0.24977204  0.81213863  0.96808898     0.10230
C2224       C  0.25025303  0.82683097  0.92761156    -0.06890
C2225       C  0.26527299  0.83938509  0.92998018    -0.18130
C2226       C  0.27961956  0.83756258  0.97183543     0.10260
S2227       S  0.23153813  0.79498358  0.96844015    -0.33090
S2228       S  0.29745385  0.85511933  0.97405423    -0.33100
H2229       H  0.31113732  0.84481037  0.00403360     0.28270
H2230       H  0.21691671  0.80795395  0.97156000     0.28270
H2231       H  0.26388226  0.79847657  0.03845124     0.18860
H2232       H  0.26596599  0.85051350  0.89841627     0.18870
C2233       C  0.15852797  0.62329466  0.33717427    -0.06970
C2234       C  0.15752936  0.62283494  0.39827307    -0.18090
C2235       C  0.14880491  0.60833666  0.42819545     0.10230
C2236       C  0.14136388  0.59336064  0.39693979    -0.06890
C2237       C  0.14462439  0.59271153  0.33671082    -0.18130
C2238       C  0.15251836  0.60756134  0.30642850     0.10260
S2239       S  0.14572394  0.61099005  0.50516152    -0.33090
S2240       S  0.15223466  0.60617087  0.22838264    -0.33100
H2241       H  0.14220541  0.62274538  0.22155328     0.28270
H2242       H  0.12606254  0.61238047  0.50007779     0.28270
H2243       H  0.16254993  0.63443171  0.42305115     0.18860
H2244       H  0.13920001  0.58127976  0.31193499     0.18870
C2245       C  0.09559000  0.52884488  0.72033252    -0.06970
C2246       C  0.07931973  0.52553057  0.75293996    -0.18090
C2247       C  0.07589113  0.50851853  0.77899836     0.10230
C2248       C  0.09075541  0.49575554  0.78696528    -0.06890
C2249       C  0.10838873  0.50024823  0.76278946    -0.18130
C2250       C  0.11072826  0.51621071  0.72751120     0.10260
S2251       S  0.05166791  0.50290152  0.79342205    -0.33090
S2252       S  0.13329326  0.51977068  0.69420463    -0.33100
H2253       H  0.13287350  0.53900003  0.70043070     0.28270
H2254       H  0.04440322  0.52090642  0.79372983     0.28270
H2255       H  0.06811248  0.53554261  0.75258213     0.18860
H2256       H  0.12010304  0.49088914  0.76897423     0.18870
C2257       C  0.08763690  0.48045335  0.20312232    -0.06970
C2258       C  0.07071352  0.48641226  0.22724891    -0.18090
C2259       C  0.06983050  0.50232493  0.26040980     0.10230
C2260       C  0.08642186  0.51213306  0.27311769    -0.06890
C2261       C  0.10353761  0.50612634  0.24965235    -0.18130
C2262       C  0.10418537  0.49069204  0.21323564     0.10260
S2263       S  0.04720819  0.51027985  0.28545803    -0.33090
S2264       S  0.12632453  0.48484490  0.18017277    -0.33100
H2265       H  0.12174842  0.46650283  0.16766393     0.28270
H2266       H  0.03657580  0.49514710  0.26685115     0.28270
H2267       H  0.05783669  0.47931389  0.21618620     0.18860
H2268       H  0.11641919  0.51320920  0.26062699     0.18870
C2269       C  0.00105761  0.58792498  0.17096034    -0.06970
C2270       C  0.01629085  0.57587579  0.16300569    -0.18090
C2271       C  0.03064498  0.57419970  0.20445037     0.10230
C2272       C  0.02977416  0.58472272  0.25559129    -0.06890
C2273       C  0.01536736  0.59791616  0.26099861    -0.18130
C2274       C  0.00108844  0.59967384  0.21920484     0.10260
S2275       S  0.04790096  0.55636217  0.19404768    -0.33090
S2276       S  0.98227543  0.61565956  0.23298978    -0.33100
H2277       H  0.97745904  0.61854264  0.17440881     0.28270
H2278       H  0.06315701  0.56730346  0.21105259     0.28270
H2279       H  0.01633267  0.56671860  0.12620620     0.18860
H2280       H  0.01442108  0.60592358  0.30036451     0.18870
C2281       C  0.99133442  0.58829501  0.77181277    -0.06970
C2282       C  0.98598876  0.58832028  0.71318575    -0.18090
C2283       C  0.99891635  0.59323933  0.66954974     0.10230
C2284       C  0.01760507  0.59777333  0.68473659    -0.06890
C2285       C  0.02206153  0.60017080  0.74325469    -0.18130
C2286       C  0.00899323  0.59603405  0.78675408     0.10260
S2287       S  0.99221810  0.59157004  0.59413470    -0.33090
S2288       S  0.01600763  0.60041959  0.86053983    -0.33100
H2289       H  0.99775380  0.60494589  0.87873684     0.28270
H2290       H  0.97324931  0.58708801  0.60372448     0.28270
H2291       H  0.97228729  0.58310436  0.70133978     0.18860
H2292       H  0.03628650  0.60382269  0.75537199     0.18870
C2293       C  0.01144434  0.52451435  0.04066026    -0.06970
C2294       C  0.02797673  0.53184743  0.01701516    -0.18090
C2295       C  0.03814573  0.52234749  0.97513514     0.10230
C2296       C  0.03150033  0.50516682  0.95592578    -0.06890
C2297       C  0.01494249  0.49794477  0.97969661    -0.18130
C2298       C  0.00579167  0.50667212  0.02503953     0.10260
S2299       S  0.05899684  0.53328515  0.94679027    -0.33090
S2300       S  0.98779779  0.49379113  0.06258372    -0.33100
H2301       H  0.99369256  0.49936352  0.11805285     0.28270
H2302       H  0.05964941  0.52366571  0.89447366     0.28270
H2303       H  0.03241142  0.54555979  0.02892657     0.18860
H2304       H  0.00951068  0.48489831  0.96547291     0.18870
C2305       C  0.98850236  0.50247774  0.42960096    -0.06970
C2306       C  0.97881433  0.51872387  0.44185136    -0.18090
C2307       C  0.98463302  0.53006467  0.48681677     0.10230
C2308       C  0.00101705  0.52546744  0.51844814    -0.06890
C2309       C  0.01054763  0.50905310  0.50654792    -0.18130
C2310       C  0.00435055  0.49746464  0.46283331     0.10260
S2311       S  0.97029817  0.54986761  0.50298887    -0.33090
S2312       S  0.01656008  0.47607558  0.45077541    -0.33100
H2313       H  0.02863064  0.47693591  0.49911020     0.28270
H2314       H  0.97554887  0.55072522  0.56185471     0.28270
H2315       H  0.96595504  0.52202424  0.41898546     0.18860
H2316       H  0.02332665  0.50564065  0.52982780     0.18870
C2317       C  0.98436299  0.41227554  0.25892890    -0.06970
C2318       C  0.99085831  0.42830273  0.23056174    -0.18090
C2319       C  0.00876808  0.42938560  0.20610146     0.10230
C2320       C  0.01957097  0.41336503  0.19829697    -0.06890
C2321       C  0.01253800  0.39672501  0.22144750    -0.18130
C2322       C  0.99552636  0.39613607  0.25349611     0.10260
S2323       S  0.01706631  0.45189137  0.18538255    -0.33090
S2324       S  0.98831575  0.37420638  0.28250034    -0.33100
H2325       H  0.96917337  0.37686667  0.26942357     0.28270
H2326       H  0.03591927  0.44840633  0.20014380     0.28270
H2327       H  0.98265811  0.44085296  0.23181194     0.18860
H2328       H  0.02007726  0.38405242  0.21327159     0.18870
C2329       C  0.99307167  0.41369923  0.70399188    -0.06970
C2330       C  0.99914090  0.39665590  0.72761036    -0.18090
C2331       C  0.01555191  0.39536866  0.76302884     0.10230
C2332       C  0.02726974  0.41102057  0.76989478    -0.06890
C2333       C  0.02172083  0.42721943  0.74068866    -0.18130
C2334       C  0.00413946  0.42921555  0.71528225     0.10260
S2335       S  0.02154460  0.37326049  0.79352275    -0.33090
S2336       S  0.99670434  0.45228319  0.69807276    -0.33100
H2337       H  0.97783841  0.44903806  0.71319905     0.28270
H2338       H  0.04098310  0.37523457  0.78443604     0.28270
H2339       H  0.99137353  0.38430544  0.71745217     0.18860
H2340       H  0.03072881  0.43914266  0.73990528     0.18870
C2341       C  0.91121753  0.52412803  0.19612555    -0.06970
C2342       C  0.91616335  0.52729406  0.25434313    -0.18090
C2343       C  0.92006128  0.51278078  0.29312533     0.10230
C2344       C  0.91910633  0.49435144  0.27446154    -0.06890
C2345       C  0.91260025  0.49099238  0.21805964    -0.18130
C2346       C  0.90823467  0.50559982  0.17946141     0.10260
S2347       S  0.92770642  0.51864468  0.36493178    -0.33090
S2348       S  0.89974083  0.49952227  0.10902336    -0.33100
H2349       H  0.88601704  0.51346358  0.10733424     0.28270
H2350       H  0.94411198  0.50803263  0.35974895     0.28270
H2351       H  0.91847925  0.54126739  0.26862974     0.18860
H2352       H  0.91115119  0.47692215  0.20367847     0.18870
C2353       C  0.91770074  0.51054274  0.77439631    -0.06970
C2354       C  0.91561584  0.51699983  0.71728685    -0.18090
C2355       C  0.91474508  0.50479263  0.67060143     0.10230
C2356       C  0.91786197  0.48563944  0.68015180    -0.06890
C2357       C  0.91796662  0.47906247  0.73724479    -0.18130
C2358       C  0.91740570  0.49107621  0.78438819     0.10260
S2359       S  0.90931354  0.51463336  0.60032170    -0.33090
S2360       S  0.91784235  0.48061037  0.85601319    -0.33100
H2361       H  0.91269484  0.46273497  0.83950354     0.28270
H2362       H  0.89956465  0.49903254  0.58089731     0.28270
H2363       H  0.91452754  0.53165504  0.70891276     0.18860
H2364       H  0.91982824  0.46447407  0.74519338     0.18870
C2365       C  0.87446734  0.64171878  0.82110850    -0.06970
C2366       C  0.87280758  0.62431581  0.79591818    -0.18090
C2367       C  0.87809877  0.60831156  0.82610969     0.10230
C2368       C  0.88593634  0.60948298  0.88252488    -0.06890
C2369       C  0.88780049  0.62689470  0.90769886    -0.18130
C2370       C  0.88213417  0.64293285  0.87777993     0.10260
S2371       S  0.87395623  0.58662519  0.79087795    -0.33090
S2372       S  0.88532549  0.66464102  0.91365167    -0.33100
H2373       H  0.88594686  0.67538739  0.86254570     0.28270
H2374       H  0.87223012  0.57620347  0.84239890     0.28270
H2375       H  0.86609382  0.62302579  0.75384763     0.18860
H2376       H  0.89449414  0.62810384  0.94980264     0.18870
C2377       C  0.72976917  0.66679102  0.99897623    -0.06970
C2378       C  0.73619097  0.64959621  0.97954016    -0.18090
C2379       C  0.75145387  0.64828165  0.94079828     0.10230
C2380       C  0.76098858  0.66440539  0.92300647    -0.06890
C2381       C  0.75483234  0.68139921  0.94364616    -0.18130
C2382       C  0.73911645  0.68282257  0.97949732     0.10260
S2383       S  0.75877148  0.62571375  0.91811238    -0.33090
S2384       S  0.73236320  0.70562653  0.00164623    -0.33100
H2385       H  0.71342188  0.70148738  0.01216756     0.28270
H2386       H  0.77751732  0.63039975  0.90573447     0.28270
H2387       H  0.72984176  0.63713751  0.99656199     0.18860
H2388       H  0.76210436  0.69382429  0.93065865     0.18870
C2389       C  0.73169272  0.64739208  0.42442745    -0.06970
C2390       C  0.72808910  0.64580444  0.48404888    -0.18090
C2391       C  0.74291230  0.64467432  0.52442958     0.10230
C2392       C  0.76171997  0.64581812  0.50478332    -0.06890
C2393       C  0.76527784  0.64592122  0.44509642    -0.18130
C2394       C  0.75048987  0.64619234  0.40495129     0.10260
S2395       S  0.73761773  0.64404322  0.60113419    -0.33090
S2396       S  0.75654917  0.64673855  0.32936206    -0.33100
H2397       H  0.74047868  0.63706313  0.31178802     0.28270
H2398       H  0.71802943  0.64220018  0.59550608     0.28270
H2399       H  0.71372815  0.64691796  0.49912422     0.18860
H2400       H  0.77963988  0.64679340  0.42970174     0.18870
C2401       C  0.84753541  0.72016392  0.50015396    -0.06970
C2402       C  0.85004721  0.73828117  0.52010817    -0.18090
C2403       C  0.84941129  0.75366016  0.48191185     0.10230
C2404       C  0.84593657  0.75112525  0.42181304    -0.06890
C2405       C  0.84529234  0.73275898  0.40186213    -0.18130
C2406       C  0.84566290  0.71751517  0.43999711     0.10260
S2407       S  0.85251724  0.77604471  0.51301020    -0.33090
S2408       S  0.84223577  0.69461805  0.41209369    -0.33100
H2409       H  0.83970805  0.69968665  0.35347774     0.28270
H2410       H  0.86359455  0.78264098  0.46674625     0.28270
H2411       H  0.85116743  0.74060577  0.56641426     0.18860
H2412       H  0.84326017  0.73018453  0.35615077     0.18870
C2413       C  0.83619137  0.74997005  0.02014250    -0.06970
C2414       C  0.84799408  0.75282656  0.97239057    -0.18090
C2415       C  0.84919481  0.73961815  0.92833625     0.10230
C2416       C  0.83804379  0.72349538  0.93194895    -0.06890
C2417       C  0.82810233  0.71981564  0.98304704    -0.18130
C2418       C  0.82726463  0.73275848  0.02720177     0.10260
S2419       S  0.86456728  0.74364007  0.86711729    -0.33090
S2420       S  0.81425990  0.72666596  0.09125568    -0.33100
H2421       H  0.82887686  0.73198553  0.12860261     0.28270
H2422       H  0.87232317  0.76021712  0.88691552     0.28270
H2423       H  0.85546289  0.76572563  0.96828853     0.18860
H2424       H  0.81983049  0.70737221  0.98705674     0.18870
C2425       C  0.76256411  0.75170064  0.20211136    -0.06970
C2426       C  0.76318593  0.74978991  0.26273504    -0.18090
C2427       C  0.74701159  0.75037510  0.29644145     0.10230
C2428       C  0.72947247  0.75141828  0.26869511    -0.06890
C2429       C  0.72887757  0.75580022  0.20906141    -0.18130
C2430       C  0.74512917  0.75533029  0.17494734     0.10260
S2431       S  0.74936583  0.74861067  0.37436834    -0.33090
S2432       S  0.74277165  0.75708639  0.09654857    -0.33100
H2433       H  0.72534465  0.76628289  0.09678720     0.28270
H2434       H  0.73163204  0.75630134  0.38643622     0.28270
H2435       H  0.77640477  0.74764972  0.28391191     0.18860
H2436       H  0.71555447  0.75712322  0.18737443     0.18870
C2437       C  0.73828198  0.74670447  0.76087132    -0.06970
C2438       C  0.72680980  0.73181489  0.74635516    -0.18090
C2439       C  0.73153590  0.72004446  0.70140202     0.10230
C2440       C  0.74853387  0.72278092  0.67146467    -0.06890
C2441       C  0.75983502  0.73797655  0.68501801    -0.18130
C2442       C  0.75477380  0.75002409  0.72910191     0.10260
S2443       S  0.71492688  0.70234348  0.68254799    -0.33090
S2444       S  0.76887367  0.77014087  0.74211437    -0.33100
H2445       H  0.77819634  0.77009896  0.68827899     0.28270
H2446       H  0.72020012  0.70141882  0.62376488     0.28270
H2447       H  0.71337441  0.72999713  0.76707403     0.18860
H2448       H  0.77290484  0.74019497  0.66218285     0.18870
C2449       C  0.66451142  0.76756207  0.51458894    -0.06970
C2450       C  0.66746298  0.77153012  0.45555671    -0.18090
C2451       C  0.66499200  0.75795762  0.41293772     0.10230
C2452       C  0.66015278  0.73971392  0.42950200    -0.06890
C2453       C  0.65550795  0.73627283  0.48763109    -0.18130
C2454       C  0.65697839  0.75005472  0.52964271     0.10260
S2455       S  0.66998883  0.76446421  0.33900174    -0.33090
S2456       S  0.64996533  0.74407825  0.60271236    -0.33100
H2457       H  0.64601371  0.76224214  0.61943414     0.28270
H2458       H  0.65696704  0.75247357  0.31373883     0.28270
H2459       H  0.67308418  0.78480941  0.44289525     0.18860
H2460       H  0.65142965  0.72251367  0.50092112     0.18870
C2461       C  0.67379863  0.75911340  0.92874360    -0.06970
C2462       C  0.65902911  0.76145374  0.96831813    -0.18090
C2463       C  0.65484462  0.74766355  0.00947090     0.10230
C2464       C  0.66538535  0.73110831  0.01018731    -0.06890
C2465       C  0.67860242  0.72812076  0.96669071    -0.18130
C2466       C  0.68313873  0.74194251  0.92717546     0.10260
S2467       S  0.63644575  0.75212580  0.06122716    -0.33090
S2468       S  0.70146191  0.73680980  0.87691450    -0.33100
H2469       H  0.69024327  0.74197257  0.82926214     0.28270
H2470       H  0.63296591  0.73353849  0.07485549     0.28270
H2471       H  0.65131998  0.77431820  0.96890198     0.18860
H2472       H  0.68671943  0.71549658  0.96650965     0.18870
C2473       C  0.73838461  0.83570723  0.94327597    -0.06970
C2474       C  0.75072276  0.85085630  0.95049971    -0.18090
C2475       C  0.76715706  0.84961668  0.98653183     0.10230
C2476       C  0.77268693  0.83237459  0.01101932    -0.06890
C2477       C  0.76095304  0.81738718  0.99901795    -0.18130
C2478       C  0.74319662  0.81935898  0.97430122     0.10260
S2479       S  0.78107736  0.86999971  0.99561566    -0.33090
S2480       S  0.72771969  0.79994979  0.98543721    -0.33100
H2481       H  0.71219893  0.81100548  0.00013625     0.28270
H2482       H  0.79833242  0.86072424  0.00178541     0.28270
H2483       H  0.74762590  0.86367735  0.92813214     0.18860
H2484       H  0.76505838  0.80368116  0.01197736     0.18870
C2485       C  0.74144466  0.83377042  0.50223115    -0.06970
C2486       C  0.75284191  0.84931685  0.49301359    -0.18090
C2487       C  0.76977177  0.84805091  0.46208881     0.10230
C2488       C  0.77633193  0.83064065  0.44463674    -0.06890
C2489       C  0.76549287  0.81509831  0.45676543    -0.18130
C2490       C  0.74754776  0.81666358  0.48039633     0.10260
S2491       S  0.78247727  0.86896263  0.44679737    -0.33090
S2492       S  0.73323583  0.79629974  0.47972835    -0.33100
H2493       H  0.71698309  0.80561731  0.46071350     0.28270
H2494       H  0.80004579  0.86061238  0.43744759     0.28270
H2495       H  0.74857099  0.86248165  0.51036417     0.18860
H2496       H  0.77034623  0.80173484  0.44276365     0.18870
C2497       C  0.61757385  0.60560007  0.06258027    -0.06970
C2498       C  0.63643304  0.60388654  0.04609315    -0.18090
C2499       C  0.65081189  0.61159325  0.07934585     0.10230
C2500       C  0.64633887  0.62162404  0.12979653    -0.06890
C2501       C  0.62746644  0.62321262  0.14661039    -0.18130
C2502       C  0.61307854  0.61533371  0.11357587     0.10260
S2503       S  0.67469885  0.60783927  0.05601388    -0.33090
S2504       S  0.58919948  0.61839994  0.13797388    -0.33100
H2505       H  0.58074749  0.61634746  0.08315242     0.28270
H2506       H  0.68284718  0.60959548  0.11140391     0.28270
H2507       H  0.64006696  0.59565566  0.00870749     0.18860
H2508       H  0.62382216  0.63144458  0.18397398     0.18870
C2509       C  0.60008686  0.45997887  0.66763719    -0.06970
C2510       C  0.59941585  0.45683933  0.72799053    -0.18090
C2511       C  0.59778934  0.47139085  0.76749163     0.10230
C2512       C  0.59663656  0.48977922  0.74722521    -0.06890
C2513       C  0.59859712  0.49311109  0.68742412    -0.18130
C2514       C  0.60073097  0.47852301  0.64795298     0.10260
S2515       S  0.59507588  0.46560664  0.84309994    -0.33090
S2516       S  0.60254466  0.48442681  0.57240748    -0.33100
H2517       H  0.61595832  0.47071161  0.56095687     0.28270
H2518       H  0.57670186  0.47276038  0.84487754     0.28270
H2519       H  0.59847919  0.44283912  0.74428222     0.18860
H2520       H  0.59805310  0.50713637  0.67116481     0.18870
C2521       C  0.58548371  0.49261764  0.15989494    -0.06970
C2522       C  0.57218182  0.47846684  0.15521594    -0.18090
C2523       C  0.57149292  0.46374280  0.19446118     0.10230
C2524       C  0.58431603  0.46301385  0.24130717    -0.06890
C2525       C  0.59811956  0.47701934  0.24478763    -0.18130
C2526       C  0.59883729  0.49168115  0.20479192     0.10260
S2527       S  0.55329220  0.44702370  0.18297940    -0.33090
S2528       S  0.61709442  0.50857988  0.21317917    -0.33100
H2529       H  0.61952101  0.51203519  0.15347028     0.28270
H2530       H  0.56579916  0.43201477  0.18573301     0.28270
H2531       H  0.56195782  0.47892473  0.12066776     0.18860
H2532       H  0.60827890  0.47687111  0.27987628     0.18870
C2533       C  0.39138992  0.60465912  0.58622934    -0.06970
C2534       C  0.38614023  0.62028256  0.55402737    -0.18090
C2535       C  0.37573591  0.63442696  0.57929769     0.10230
C2536       C  0.37006954  0.63274562  0.63794585    -0.06890
C2537       C  0.37544445  0.61718803  0.67044324    -0.18130
C2538       C  0.38608402  0.60310299  0.64519062     0.10260
S2539       S  0.37059653  0.65496995  0.53707242    -0.33090
S2540       S  0.39198169  0.58282547  0.68752349    -0.33100
H2541       H  0.38395750  0.58862764  0.74008072     0.28270
H2542       H  0.37837259  0.64900151  0.48435150     0.28270
H2543       H  0.39083960  0.62168545  0.50948055     0.18860
H2544       H  0.37070617  0.61580005  0.71494334     0.18870
C2545       C  0.51107581  0.57421666  0.66324582    -0.06970
C2546       C  0.50977593  0.58685695  0.70919371    -0.18090
C2547       C  0.52499393  0.58939854  0.74846840     0.10230
C2548       C  0.54219588  0.57967813  0.74043213    -0.06890
C2549       C  0.54374365  0.56860162  0.69144809    -0.18130
C2550       C  0.52830012  0.56452789  0.65718117     0.10260
S2551       S  0.52132586  0.60452250  0.80872445    -0.33090
S2552       S  0.53064522  0.54380508  0.61615220    -0.33100
H2553       H  0.51697125  0.53493250  0.65029523     0.28270
H2554       H  0.53871859  0.61342257  0.80182936     0.28270
H2555       H  0.49685758  0.59450802  0.71521283     0.18860
H2556       H  0.55655318  0.56084843  0.68417647     0.18870
C2557       C  0.50511755  0.58107224  0.25725539    -0.06970
C2558       C  0.51869363  0.56720915  0.26520529    -0.18090
C2559       C  0.53413024  0.56562759  0.22836989     0.10230
C2560       C  0.53593837  0.57792277  0.18091295    -0.06890
C2561       C  0.52348344  0.59306197  0.17699812    -0.18130
C2562       C  0.50805628  0.59474312  0.21458789     0.10260
S2563       S  0.54951838  0.54622811  0.24016135    -0.33090
S2564       S  0.49196918  0.61360201  0.20261400    -0.33100
H2565       H  0.47571700  0.60447736  0.22187997     0.28270
H2566       H  0.56596831  0.55684653  0.23582172     0.28270
H2567       H  0.51688531  0.55703135  0.29949172     0.18860
H2568       H  0.52478715  0.60272419  0.14109474     0.18870
C2569       C  0.49960750  0.50431084  0.41578489    -0.06970
C2570       C  0.51581127  0.50592781  0.44979618    -0.18090
C2571       C  0.51887527  0.49456156  0.49760569     0.10230
C2572       C  0.50669890  0.47949884  0.50778253    -0.06890
C2573       C  0.49076922  0.47746353  0.47248787    -0.18130
C2574       C  0.48731761  0.48933774  0.42550817     0.10260
S2575       S  0.53793498  0.50096407  0.54500155    -0.33090
S2576       S  0.46830782  0.48409068  0.37599409    -0.33100
H2577       H  0.46255535  0.46755455  0.40259293     0.28270
H2578       H  0.52726318  0.49864736  0.59600137     0.28270
H2579       H  0.52558205  0.51698660  0.44133423     0.18860
H2580       H  0.48136533  0.46608589  0.48067843     0.18870
C2581       C  0.47273621  0.41323216  0.76618540    -0.06970
C2582       C  0.47933951  0.42956645  0.74171239    -0.18090
C2583       C  0.49404022  0.42975339  0.70180282     0.10230
C2584       C  0.50196708  0.41295595  0.68224055    -0.06890
C2585       C  0.49463334  0.39636258  0.70458849    -0.18130
C2586       C  0.48042330  0.39635787  0.74733025     0.10260
S2587       S  0.50205773  0.45202223  0.67765877    -0.33090
S2588       S  0.47286272  0.37454607  0.77663677    -0.33100
H2589       H  0.45523996  0.38067559  0.79623273     0.28270
H2590       H  0.49794389  0.46125811  0.72958924     0.28270
H2591       H  0.47370971  0.44250262  0.75685140     0.18860
H2592       H  0.50046174  0.38338671  0.69037948     0.18870
C2593       C  0.46927092  0.40337591  0.19140260    -0.06970
C2594       C  0.48781505  0.40312625  0.16999960    -0.18090
C2595       C  0.50349553  0.40365966  0.20773643     0.10230
C2596       C  0.50072716  0.40496246  0.26854570    -0.06890
C2597       C  0.48217691  0.40311680  0.28946041    -0.18130
C2598       C  0.46664557  0.40234536  0.25201233     0.10260
S2599       S  0.52642813  0.40447547  0.17537818    -0.33090
S2600       S  0.44357560  0.40171248  0.28424557    -0.33100
H2601       H  0.43446233  0.39425777  0.23561424     0.28270
H2602       H  0.53327773  0.38994160  0.21019545     0.28270
H2603       H  0.49011613  0.40407336  0.12353755     0.18860
H2604       H  0.47956691  0.40338849  0.33581763     0.18870
C2605       C  0.48897626  0.49459228  0.02740608    -0.06970
C2606       C  0.50301770  0.48117028  0.01983728    -0.18090
C2607       C  0.51502122  0.48176182  0.97191495     0.10230
C2608       C  0.51512493  0.49743664  0.93526196    -0.06890
C2609       C  0.50234437  0.51176417  0.94643802    -0.18130
C2610       C  0.48929521  0.51048641  0.99173274     0.10260
S2611       S  0.52822720  0.46121149  0.95624394    -0.33090
S2612       S  0.47347682  0.52959537  0.00220067    -0.33100
H2613       H  0.47050189  0.52613733  0.06172250     0.28270
H2614       H  0.52836825  0.46391266  0.89563875     0.28270
H2615       H  0.50334204  0.46901392  0.04739774     0.18860
H2616       H  0.50248945  0.52406378  0.91974580     0.18870
C2617       C  0.40903249  0.49944568  0.18936147    -0.06970
C2618       C  0.40774240  0.51741174  0.16651683    -0.18090
C2619       C  0.40744985  0.53285274  0.20288203     0.10230
C2620       C  0.40797408  0.53050828  0.26390115    -0.06890
C2621       C  0.40765310  0.51246521  0.28666083    -0.18130
C2622       C  0.40839984  0.49701754  0.25033112     0.10260
S2623       S  0.40758904  0.55528415  0.16891535    -0.33090
S2624       S  0.40943523  0.47461993  0.28451318    -0.33100
H2625       H  0.40097897  0.46507263  0.23856269     0.28270
H2626       H  0.40000972  0.56468588  0.21661924     0.28270
H2627       H  0.40811774  0.51950750  0.11985376     0.18860
H2628       H  0.40832684  0.51031700  0.33322446     0.18870
C2629       C  0.42582248  0.52145634  0.68736670    -0.06970
C2630       C  0.44279877  0.51407610  0.70764051    -0.18090
C2631       C  0.44317839  0.49862762  0.74371230     0.10230
C2632       C  0.42619156  0.49085009  0.76381638    -0.06890
C2633       C  0.40906904  0.49803834  0.74344006    -0.18130
C2634       C  0.40872335  0.51308710  0.70453005     0.10260
S2635       S  0.46597513  0.48938346  0.76223171    -0.33090
S2636       S  0.38612571  0.52142785  0.68039143    -0.33100
H2637       H  0.39185529  0.53963262  0.66978565     0.28270
H2638       H  0.45971945  0.47151615  0.77521385     0.28270
H2639       H  0.45601317  0.51978278  0.69260856     0.18860
H2640       H  0.39597384  0.49244783  0.75972571     0.18870
C2641       C  0.87134425  0.36160924  0.61972250    -0.06970
C2642       C  0.88898473  0.36007222  0.64683709    -0.18090
C2643       C  0.90530190  0.36687771  0.62007454     0.10230
C2644       C  0.90411595  0.37528036  0.56463892    -0.06890
C2645       C  0.88664576  0.37619503  0.53652770    -0.18130
C2646       C  0.87027821  0.36980013  0.56368405     0.10260
S2647       S  0.92769827  0.36479763  0.65669469    -0.33090
S2648       S  0.84834605  0.37376782  0.52615639    -0.33100
H2649       H  0.83778529  0.37683494  0.57680132     0.28270
H2650       H  0.92096786  0.35614679  0.70743945     0.28270
H2651       H  0.89002267  0.35322090  0.68868808     0.18860
H2652       H  0.88547535  0.38332515  0.49509382     0.18870
C2653       C  0.63090501  0.34481560  0.29868263    -0.06970
C2654       C  0.63002295  0.36259335  0.27468979    -0.18090
C2655       C  0.62217324  0.37721359  0.30566170     0.10230
C2656       C  0.61463864  0.37411310  0.36179910    -0.06890
C2657       C  0.61502282  0.35626794  0.38523237    -0.18130
C2658       C  0.62290639  0.34163578  0.35425575     0.10260
S2659       S  0.62277198  0.39973334  0.27202018    -0.33090
S2660       S  0.62230892  0.31911227  0.38778266    -0.33100
H2661       H  0.62347841  0.30925297  0.33561373     0.28270
H2662       H  0.62331831  0.40965553  0.32414876     0.28270
H2663       H  0.63671750  0.36542250  0.23329583     0.18860
H2664       H  0.60850830  0.35356950  0.42697351     0.18870
C2665       C  0.75518075  0.34203580  0.00409821    -0.06970
C2666       C  0.77282085  0.33927588  0.03018770    -0.18090
C2667       C  0.78941420  0.33919546  0.99726085     0.10230
C2668       C  0.78850964  0.34224658  0.93661678    -0.06890
C2669       C  0.77099322  0.34669637  0.91140913    -0.18130
C2670       C  0.75433115  0.34643864  0.94436722     0.10260
S2671       S  0.81159122  0.33429098  0.03265134    -0.33090
S2672       S  0.73239300  0.35045401  0.90713252    -0.33100
H2673       H  0.72213891  0.35576888  0.95637625     0.28270
H2674       H  0.80438870  0.33126072  0.08880640     0.28270
H2675       H  0.77344088  0.33598294  0.07614359     0.18860
H2676       H  0.77004002  0.34891486  0.86489522     0.18870
C2677       C  0.74440100  0.33207338  0.42505381    -0.06970
C2678       C  0.74251457  0.31728870  0.46404088    -0.18090
C2679       C  0.75624139  0.31341490  0.50575560     0.10230
C2680       C  0.77197710  0.32513468  0.51185902    -0.06890
C2681       C  0.77392245  0.34008127  0.47333504    -0.18130
C2682       C  0.76035797  0.34362715  0.42995551     0.10260
S2683       S  0.75335269  0.29256995  0.54791675    -0.33090
S2684       S  0.76384817  0.36343988  0.38363127    -0.33100
H2685       H  0.74462094  0.36693844  0.37426900     0.28270
H2686       H  0.77268472  0.28874507  0.55219894     0.28270
H2687       H  0.73085679  0.30783467  0.45944913     0.18860
H2688       H  0.78569057  0.34936517  0.47822764     0.18870
C2689       C  0.85155770  0.24848776  0.92101279    -0.06970
C2690       C  0.85653911  0.25152462  0.97900110    -0.18090
C2691       C  0.85338796  0.23810347  0.02219933     0.10230
C2692       C  0.84412149  0.22150297  0.00797373    -0.06890
C2693       C  0.84097548  0.21765132  0.94915309    -0.18130
C2694       C  0.84494556  0.23080293  0.90555912     0.10260
S2695       S  0.86068135  0.24259432  0.09595086    -0.33090
S2696       S  0.83941827  0.22483605  0.83182631    -0.33100
H2697       H  0.85472167  0.23427140  0.80735105     0.28270
H2698       H  0.86959945  0.25949312  0.08466998     0.28270
H2699       H  0.86184538  0.26490868  0.99097892     0.18860
H2700       H  0.83421360  0.20488413  0.93735452     0.18870
C2701       C  0.83442525  0.25905092  0.50807795    -0.06970
C2702       C  0.84862934  0.24557269  0.51143681    -0.18090
C2703       C  0.84907199  0.23075744  0.47274681     0.10230
C2704       C  0.83493808  0.22939312  0.43008179    -0.06890
C2705       C  0.82149964  0.24353646  0.42461540    -0.18130
C2706       C  0.82106163  0.25828699  0.46316828     0.10260
S2707       S  0.86712233  0.21357561  0.48269080    -0.33090
S2708       S  0.80238444  0.27513519  0.45810179    -0.33100
H2709       H  0.79068855  0.26498356  0.42108816     0.28270
H2710       H  0.85657091  0.19859414  0.46278881     0.28270
H2711       H  0.85871951  0.24597915  0.54670731     0.18860
H2712       H  0.81085550  0.24264321  0.39108360     0.18870
C2713       C  0.77109018  0.24770086  0.30102393    -0.06970
C2714       C  0.78202341  0.26346778  0.29113266    -0.18090
C2715       C  0.77900249  0.27413805  0.24115283     0.10230
C2716       C  0.76303192  0.27069277  0.20640467    -0.06890
C2717       C  0.75036099  0.25690114  0.22369316    -0.18130
C2718       C  0.75372489  0.24618902  0.27301967     0.10260
S2719       S  0.79686682  0.29056875  0.22123511    -0.33090
S2720       S  0.73835337  0.22727726  0.29028742    -0.33100
H2721       H  0.73299549  0.22405130  0.23244546     0.28270
H2722       H  0.79374969  0.28954581  0.16099329     0.28270
H2723       H  0.79531996  0.26484195  0.31368871     0.18860
H2724       H  0.73771576  0.25453359  0.19901157     0.18870
C2725       C  0.75240530  0.23891984  0.70491884    -0.06970
C2726       C  0.74818432  0.24997017  0.75292572    -0.18090
C2727       C  0.76109080  0.25281427  0.79740311     0.10230
C2728       C  0.77925232  0.24512730  0.79292575    -0.06890
C2729       C  0.78274191  0.23240077  0.74886876    -0.18130
C2730       C  0.77035538  0.23045945  0.70231661     0.10260
S2731       S  0.75353132  0.26689424  0.85716573    -0.33090
S2732       S  0.78013138  0.22002300  0.63820513    -0.33100
H2733       H  0.77117212  0.23165001  0.59762705     0.28270
H2734       H  0.76341025  0.25651167  0.89921211     0.28270
H2735       H  0.73471418  0.25673733  0.75584575     0.18860
H2736       H  0.79635674  0.22579581  0.74671456     0.18870
C2737       C  0.66959337  0.23897061  0.91196760    -0.06970
C2738       C  0.67160589  0.25751036  0.89368751    -0.18090
C2739       C  0.67221472  0.27214782  0.93311708     0.10230
C2740       C  0.66967539  0.26877008  0.99279587    -0.06890
C2741       C  0.66596409  0.25057418  0.01118206    -0.18130
C2742       C  0.66578116  0.23575458  0.97170146     0.10260
S2743       S  0.67758637  0.29510214  0.90744164    -0.33090
S2744       S  0.66105600  0.21315642  0.00060553    -0.33100
H2745       H  0.64951596  0.20807419  0.95374537     0.28270
H2746       H  0.68096078  0.29054870  0.84912922     0.28270
H2747       H  0.67381892  0.26062553  0.84828104     0.18860
H2748       H  0.66428003  0.24770528  0.05715855     0.18870
C2749       C  0.68231440  0.24022131  0.50265084    -0.06970
C2750       C  0.66625035  0.24073010  0.46713132    -0.18090
C2751       C  0.66295983  0.25548577  0.42842833     0.10230
C2752       C  0.67601345  0.27015918  0.42470130    -0.06890
C2753       C  0.69139144  0.27013003  0.46265930    -0.18130
C2754       C  0.69457947  0.25555069  0.50139041     0.10260
S2755       S  0.64185779  0.25481561  0.38507435    -0.33090
S2756       S  0.71416236  0.25782972  0.54995550    -0.33100
H2757       H  0.70249260  0.25615662  0.59888248     0.28270
H2758       H  0.63993416  0.27402343  0.37977098     0.28270
H2759       H  0.65631844  0.22947021  0.46898837     0.18860
H2760       H  0.70154912  0.28120384  0.46051956     0.18870
C2761       C  0.73275874  0.15980817  0.94257991    -0.06970
C2762       C  0.74321143  0.14333710  0.94547876    -0.18090
C2763       C  0.75996566  0.14210952  0.97736781     0.10230
C2764       C  0.76699035  0.15787660  0.00487446    -0.06890
C2765       C  0.75670734  0.17430873  0.00156836    -0.18130
C2766       C  0.73934762  0.17523442  0.97331942     0.10260
S2767       S  0.77185665  0.12020300  0.98089378    -0.33090
S2768       S  0.72682844  0.19675825  0.97622792    -0.33100
H2769       H  0.70967419  0.18851611  0.99179717     0.28270
H2770       H  0.78978830  0.12722202  0.99345270     0.28270
H2771       H  0.73852654  0.13146199  0.92137542     0.18860
H2772       H  0.76178655  0.18634687  0.02392300     0.18870
C2773       C  0.77427029  0.15165405  0.44275767    -0.06970
C2774       C  0.76260263  0.13617446  0.45334239    -0.18090
C2775       C  0.74590140  0.13749999  0.48778931     0.10230
C2776       C  0.73934099  0.15500392  0.50625193    -0.06890
C2777       C  0.75014107  0.17026194  0.48914913    -0.18130
C2778       C  0.76828235  0.16850296  0.46749499     0.10260
S2779       S  0.73308371  0.11673725  0.50312861    -0.33090
S2780       S  0.78287749  0.18860954  0.47612721    -0.33100
H2781       H  0.79811432  0.17852109  0.49917357     0.28270
H2782       H  0.71531147  0.12521501  0.50461007     0.28270
H2783       H  0.76659657  0.12299140  0.43564150     0.18860
H2784       H  0.74540413  0.18403846  0.49876919     0.18870
C2785       C  0.13209817  0.84931692  0.81925349    -0.06970
C2786       C  0.11810136  0.85801653  0.78559244    -0.18090
C2787       C  0.10470104  0.86980433  0.81085698     0.10230
C2788       C  0.10537751  0.87355655  0.87125618    -0.06890
C2789       C  0.11813478  0.86363679  0.90546669    -0.18130
C2790       C  0.13126680  0.85156589  0.88081213     0.10260
S2791       S  0.08702897  0.87955944  0.76360795    -0.33090
S2792       S  0.14701792  0.83971537  0.93000787    -0.33100
H2793       H  0.13797063  0.84422065  0.98228220     0.28270
H2794       H  0.07320764  0.88126333  0.80690185     0.28270
H2795       H  0.11791780  0.85613862  0.73897231     0.18860
H2796       H  0.11861730  0.86625027  0.95166601     0.18870
C2797       C  0.07667543  0.02157491  0.70103573    -0.06970
C2798       C  0.09393380  0.02161144  0.73058462    -0.18090
C2799       C  0.09866330  0.00733289  0.76961889     0.10230
C2800       C  0.08617147  0.99239767  0.77759925    -0.06890
C2801       C  0.06896370  0.99251935  0.74808067    -0.18130
C2802       C  0.06386028  0.00714911  0.71179306     0.10260
S2803       S  0.12117076  0.00842749  0.80544206    -0.33090
S2804       S  0.04087278  0.00640142  0.67863373    -0.33100
H2805       H  0.03904247  0.02552294  0.67059073     0.28270
H2806       H  0.12348835  0.98932007  0.81237569     0.28270
H2807       H  0.10414141  0.03223995  0.72093531     0.18860
H2808       H  0.05898423  0.98150129  0.75541451     0.18870
C2809       C  0.10140201  0.99170411  0.19941897    -0.06970
C2810       C  0.10523165  0.00934694  0.17688714    -0.18090
C2811       C  0.10491463  0.02496430  0.21240403     0.10230
C2812       C  0.10121868  0.02305314  0.27243316    -0.06890
C2813       C  0.09912886  0.00522379  0.29580511    -0.18130
C2814       C  0.09892964  0.98963566  0.26002975     0.10260
S2815       S  0.10782806  0.04714076  0.17794943    -0.33090
S2816       S  0.09424559  0.96764559  0.29371364    -0.33100
H2817       H  0.10309345  0.95703100  0.25089227     0.28270
H2818       H  0.11361734  0.05637703  0.22828159     0.28270
H2819       H  0.10702083  0.01118606  0.13043714     0.18860
H2820       H  0.09592187  0.00354695  0.34155471     0.18870
C2821       C  0.88405274  0.10505530  0.05741171    -0.06970
C2822       C  0.88623343  0.11148517  0.11455528    -0.18090
C2823       C  0.87086375  0.11700009  0.14810223     0.10230
C2824       C  0.85255012  0.11656782  0.12426299    -0.06890
C2825       C  0.85037536  0.11039584  0.06681375    -0.18130
C2826       C  0.86577129  0.10475013  0.03336803     0.10260
S2827       S  0.87579613  0.12522357  0.22000654    -0.33090
S2828       S  0.86098790  0.09646089  0.96149192    -0.33100
H2829       H  0.87324949  0.10914889  0.93499917     0.28270
H2830       H  0.86404515  0.11214361  0.24682463     0.28270
H2831       H  0.90009364  0.11167215  0.13415236     0.18860
H2832       H  0.83651951  0.11033402  0.04720345     0.18870
C2833       C  0.97378635  0.07463017  0.17950208    -0.06970
C2834       C  0.98611803  0.05984728  0.18566664    -0.18090
C2835       C  0.00264038  0.06130257  0.21738573     0.10230
C2836       C  0.00627922  0.07733892  0.25041903    -0.06890
C2837       C  0.99306509  0.09184183  0.24746876    -0.18130
C2838       C  0.97720268  0.09087570  0.21079348     0.10260
S2839       S  0.01869655  0.04240194  0.20901312    -0.33090
S2840       S  0.96213808  0.11075325  0.20473614    -0.33100
H2841       H  0.94645462  0.10146294  0.18233632     0.28270
H2842       H  0.03265092  0.05351915  0.18348729     0.28270
H2843       H  0.98378502  0.04752194  0.16045302     0.18860
H2844       H  0.99537975  0.10419852  0.27236907     0.18870
C2845       C  0.00082634  0.07951607  0.66539691    -0.06970
C2846       C  0.98197654  0.07766988  0.64664416    -0.18090
C2847       C  0.96666889  0.07874415  0.68462035     0.10230
C2848       C  0.96958793  0.08254657  0.74387253    -0.06890
C2849       C  0.98807639  0.08651004  0.76219080    -0.18130
C2850       C  0.00364751  0.08495500  0.72391881     0.10260
S2851       S  0.94330342  0.07436146  0.65683903    -0.32450
S2852       S  0.02661200  0.08932415  0.75315959    -0.33100
H2853       H  0.03361382  0.07190690  0.73815474     0.28270
H2854       H  0.94888199  0.06590493  0.60487658     0.28270
H2855       H  0.97899459  0.07463771  0.60170387     0.18860
H2856       H  0.99063293  0.08931873  0.80765144     0.18870
C2857       C  0.01719246  0.99494715  0.00992947    -0.06970
C2858       C  0.01875816  0.00671469  0.96156890    -0.18090
C2859       C  0.00532837  0.00685340  0.91699174     0.10230
C2860       C  0.98892232  0.99590057  0.92279837    -0.06890
C2861       C  0.98753217  0.98397754  0.97089664    -0.18130
C2862       C  0.00079300  0.98406507  0.01561934     0.10260
S2863       S  0.00990744  0.02079830  0.85290321    -0.33090
S2864       S  0.99481157  0.97138705  0.08098250    -0.33100
H2865       H  0.00251652  0.98451111  0.11872735     0.28270
H2866       H  0.02591775  0.02995130  0.87362572     0.28270
H2867       H  0.03115292  0.01518685  0.95711132     0.18860
H2868       H  0.97532073  0.97532801  0.97580814     0.18870
C2869       C  0.88254713  0.88893037  0.37389425    -0.06970
C2870       C  0.86404611  0.89568149  0.36922606    -0.18090
C2871       C  0.85000518  0.88549629  0.34065607     0.10230
C2872       C  0.85476497  0.86847257  0.31527255    -0.06890
C2873       C  0.87324151  0.86197419  0.31991750    -0.18130
C2874       C  0.88688573  0.87161814  0.35014103     0.10260
S2875       S  0.82639078  0.89453224  0.34043544    -0.33090
S2876       S  0.90920021  0.86028742  0.36091829    -0.33100
H2877       H  0.91174837  0.86671219  0.41777728     0.28270
H2878       H  0.81969092  0.88427701  0.29347793     0.28270
H2879       H  0.86057130  0.90894220  0.38745118     0.18860
H2880       H  0.87680918  0.84855225  0.30286350     0.18870
C2881       C  0.03250600  0.90253197  0.18857958    -0.06970
C2882       C  0.01373452  0.90260525  0.16909750    -0.18090
C2883       C  0.99850869  0.90259349  0.20820007     0.10230
C2884       C  0.00197245  0.90274937  0.26884971    -0.06890
C2885       C  0.02083323  0.90039020  0.28743905    -0.18130
C2886       C  0.03594709  0.90060908  0.24843126     0.10260
S2887       S  0.97527905  0.90395097  0.17762211    -0.33090
S2888       S  0.05942004  0.90044550  0.27802184    -0.33100
H2889       H  0.06831543  0.89427316  0.22726857     0.28270
H2890       H  0.96833785  0.88980223  0.21365553     0.28270
H2891       H  0.01089779  0.90427545  0.12305944     0.18860
H2892       H  0.02412826  0.89977627  0.33336403     0.18870
C2893       C  0.00569517  0.90739845  0.67826669    -0.06970
C2894       C  0.02354983  0.91425015  0.66413868    -0.18090
C2895       C  0.03766559  0.91596956  0.70627699     0.10230
C2896       C  0.03377031  0.91101236  0.76474851    -0.06890
C2897       C  0.01624788  0.90264381  0.77704661    -0.18130
C2898       C  0.00221429  0.90101469  0.73491674     0.10260
S2899       S  0.05964235  0.92567584  0.68253767    -0.33090
S2900       S  0.97955794  0.89254499  0.75775334    -0.33100
H2901       H  0.97389507  0.88603514  0.70325330     0.28270
H2902       H  0.07065853  0.91295782  0.71384126     0.28270
H2903       H  0.02621118  0.91918707  0.62032378     0.18860
H2904       H  0.01279598  0.89835004  0.82091506     0.18870
C2905       C  0.00034137  0.98394892  0.48077813    -0.06970
C2906       C  0.98582969  0.99705625  0.47433026    -0.18090
C2907       C  0.98688007  0.01103079  0.43249940     0.10230
C2908       C  0.00272780  0.01198242  0.39632952    -0.06890
C2909       C  0.01563309  0.99731264  0.39690369    -0.18130
C2910       C  0.01552656  0.98432693  0.44163115     0.10260
S2911       S  0.96757419  0.02702416  0.42632163    -0.33090
S2912       S  0.03609405  0.96993579  0.44905487    -0.33100
H2913       H  0.03492764  0.96776139  0.50970038     0.28270
H2914       H  0.97147964  0.03243497  0.36875496     0.28270
H2915       H  0.97368339  0.99659010  0.50243305     0.18860
H2916       H  0.02765333  0.99750099  0.36812894     0.18870
C2917       C  0.91158172  0.95826286  0.69317491    -0.06970
C2918       C  0.90088940  0.97384088  0.67750887    -0.18090
C2919       C  0.89987522  0.98924466  0.71393581     0.10230
C2920       C  0.90969729  0.98905219  0.76728486    -0.06890
C2921       C  0.91873020  0.97282671  0.78540587    -0.18130
C2922       C  0.91963015  0.95745947  0.74937909     0.10260
S2923       S  0.88767091  0.00933969  0.68702500    -0.33090
S2924       S  0.93297983  0.93785498  0.77496546    -0.33100
H2925       H  0.92485146  0.92517975  0.73665587     0.28270
H2926       H  0.88358080  0.01684444  0.74153434     0.28270
H2927       H  0.89495975  0.97482667  0.63419475     0.18860
H2928       H  0.92606549  0.97247119  0.82672817     0.18870
C2929       C  0.92362896  0.99917555  0.17549935    -0.06970
C2930       C  0.93786126  0.98575175  0.17588459    -0.18090
C2931       C  0.93715700  0.97035425  0.21197254     0.10230
C2932       C  0.92220749  0.96839695  0.25190092    -0.06890
C2933       C  0.90809035  0.98211602  0.25278481    -0.18130
C2934       C  0.90862096  0.99740548  0.21493402     0.10260
S2935       S  0.95634193  0.95426587  0.20556719    -0.33090
S2936       S  0.88960001  0.01368752  0.21743488    -0.33100
H2937       H  0.90148096  0.02909317  0.21778906     0.28270
H2938       H  0.94441123  0.93949722  0.19204479     0.28270
H2939       H  0.94948252  0.98691395  0.14566365     0.18860
H2940       H  0.89670622  0.98108414  0.28385248     0.18870
C2941       C  0.40211587  0.87624845  0.05732492    -0.06970
C2942       C  0.40582321  0.86881270  0.11278805    -0.18090
C2943       C  0.39278249  0.85743784  0.14129483     0.10230
C2944       C  0.37547161  0.85327885  0.11432571    -0.06890
C2945       C  0.37212825  0.86003404  0.05783915    -0.18130
C2946       C  0.38502310  0.87164333  0.02969759     0.10260
S2947       S  0.39930776  0.84784254  0.21073517    -0.33090
S2948       S  0.37813498  0.88145777  0.96088276    -0.33100
H2949       H  0.38001387  0.89960000  0.98045280     0.28270
H2950       H  0.38610478  0.85862959  0.24050338     0.28270
H2951       H  0.41881542  0.87226555  0.13471092     0.18860
H2952       H  0.35899543  0.85683765  0.03631112     0.18870
C2953       C  0.40691230  0.99619485  0.75727420    -0.06970
C2954       C  0.40234805  0.99358482  0.69874423    -0.18090
C2955       C  0.39942647  0.00870390  0.66111225     0.10230
C2956       C  0.40219924  0.02686650  0.68135497    -0.06890
C2957       C  0.40521333  0.02931154  0.74098372    -0.18130
C2958       C  0.40729927  0.01433286  0.77894408     0.10260
S2959       S  0.39367640  0.00380707  0.58702661    -0.33090
S2960       S  0.41216438  0.01942590  0.85375656    -0.33100
H2961       H  0.39928977  0.00643758  0.87512364     0.28270
H2962       H  0.38014437  0.01787753  0.58257427     0.28270
H2963       H  0.40157536  0.97974474  0.68189180     0.18860
H2964       H  0.40731790  0.04306225  0.75754498     0.18870
C2965       C  0.41603506  0.99242891  0.16620024    -0.06970
C2966       C  0.42221816  0.01059944  0.15582542    -0.18090
C2967       C  0.42215943  0.02397334  0.19922542     0.10230
C2968       C  0.41614876  0.01917220  0.25574881    -0.06890
C2969       C  0.40811394  0.00151676  0.26420609    -0.18130
C2970       C  0.40829348  0.98816077  0.22077762     0.10260
S2971       S  0.43068831  0.04647490  0.17969656    -0.33090
S2972       S  0.39845705  0.96598735  0.23742096    -0.33100
H2973       H  0.41620515  0.95742030  0.23936720     0.28270
H2974       H  0.41559431  0.05565833  0.20629158     0.28270
H2975       H  0.42785445  0.01436174  0.11387292     0.18860
H2976       H  0.40259352  0.99757241  0.30634747     0.18870
C2977       C  0.64278830  0.09019837  0.88449862    -0.06970
C2978       C  0.65763087  0.08547240  0.84711660    -0.18090
C2979       C  0.66850544  0.09915217  0.81905568     0.10230
C2980       C  0.66379435  0.11797328  0.82585192    -0.06890
C2981       C  0.64887506  0.12239160  0.86327571    -0.18130
C2982       C  0.63871825  0.10895684  0.89294463     0.10260
S2983       S  0.68833723  0.09175026  0.77682591    -0.33090
S2984       S  0.61978406  0.11674558  0.93836431    -0.33100
H2985       H  0.62430626  0.10465385  0.98422706     0.28270
H2986       H  0.70010217  0.10614184  0.79484528     0.28270
H2987       H  0.66066983  0.07109535  0.83943499     0.18860
H2988       H  0.64479146  0.13660379  0.86929837     0.18870
C2989       C  0.52449702  0.07543798  0.18610844    -0.06970
C2990       C  0.51177548  0.06070480  0.18767674    -0.18090
C2991       C  0.49705524  0.06005718  0.22714483     0.10230
C2992       C  0.49469491  0.07459229  0.26640494    -0.06890
C2993       C  0.50654459  0.09002675  0.26267224    -0.18130
C2994       C  0.52143556  0.09065490  0.22250033     0.10260
S2995       S  0.48328095  0.03921485  0.22944289    -0.33090
S2996       S  0.53652524  0.11050190  0.22246474    -0.33100
H2997       H  0.55301977  0.10111855  0.20690160     0.28270
H2998       H  0.46650351  0.04729319  0.24834328     0.28270
H2999       H  0.51371249  0.04914396  0.15889713     0.18860
H3000       H  0.50483634  0.10113167  0.29328156     0.18870
C3001       C  0.49490501  0.07984502  0.69483650    -0.06970
C3002       C  0.51213296  0.08891312  0.68385144    -0.18090
C3003       C  0.52770066  0.08708752  0.72187336     0.10230
C3004       C  0.52637353  0.07551926  0.77139159    -0.06890
C3005       C  0.50935471  0.06648923  0.78189071    -0.18130
C3006       C  0.49375677  0.06864169  0.74585974     0.10260
S3007       S  0.54849793  0.10022569  0.70587079    -0.33090
S3008       S  0.47308528  0.05631104  0.76937883    -0.33100
H3009       H  0.46162421  0.07210843  0.76816124     0.28270
H3010       H  0.55373417  0.10286256  0.76410984     0.28270
H3011       H  0.51354590  0.09749987  0.64541198     0.18860
H3012       H  0.50807901  0.05753175  0.81948876     0.18870
C3013       C  0.50846374  0.01543597  0.03157078    -0.06970
C3014       C  0.49397306  0.02717428  0.01300113    -0.18090
C3015       C  0.48225499  0.02236588  0.96678385     0.10230
C3016       C  0.48484919  0.00524782  0.93953168    -0.06890
C3017       C  0.49929685  0.99351659  0.95888066    -0.18130
C3018       C  0.51078413  0.99825786  0.00521914     0.10260
S3019       S  0.46503923  0.03901557  0.94235446    -0.33090
S3020       S  0.52920790  0.98250361  0.02609531    -0.33100
H3021       H  0.52774597  0.98610879  0.08580759     0.28270
H3022       H  0.46465156  0.03312117  0.88435577     0.28270
H3023       H  0.49268810  0.04073315  0.03178897     0.18860
H3024       H  0.50134662  0.98027893  0.93894064     0.18870
C3025       C  0.63715267  0.90587096  0.57583194    -0.06970
C3026       C  0.64252794  0.90801429  0.63435687    -0.18090
C3027       C  0.65658980  0.89691794  0.66018431     0.10230
C3028       C  0.66512514  0.88270367  0.62765545    -0.06890
C3029       C  0.66059579  0.88173243  0.56788997    -0.18130
C3030       C  0.64680407  0.89283102  0.54220777     0.10260
S3031       S  0.66245219  0.90134045  0.73476881    -0.33090
S3032       S  0.64035550  0.88780881  0.46839633    -0.33100
H3033       H  0.64587858  0.90523801  0.44778691     0.28270
H3034       H  0.68195515  0.90091077  0.72464875     0.28270
H3035       H  0.63544336  0.91820565  0.66055621     0.18860
H3036       H  0.66713532  0.87147657  0.54073223     0.18870
C3037       C  0.51394342  0.91035016  0.67555540    -0.06970
C3038       C  0.49512406  0.90828166  0.65633656    -0.18090
C3039       C  0.47982719  0.90808719  0.69485032     0.10230
C3040       C  0.48296844  0.90942756  0.75496454    -0.06890
C3041       C  0.50169434  0.90942025  0.77501217    -0.18130
C3042       C  0.51710995  0.90965922  0.73640276     0.10260
S3043       S  0.45647904  0.90778416  0.66435896    -0.33090
S3044       S  0.54024930  0.91010271  0.76790808    -0.33100
H3045       H  0.54755264  0.89704782  0.72919540     0.28270
H3046       H  0.44756307  0.90076165  0.71431361     0.28270
H3047       H  0.49199747  0.90793473  0.61034028     0.18860
H3048       H  0.50434672  0.91053849  0.82122353     0.18870
C3049       C  0.51125579  0.92127906  0.26579118    -0.06970
C3050       C  0.51010694  0.90586496  0.22979548    -0.18090
C3051       C  0.49535041  0.90408809  0.18955823     0.10230
C3052       C  0.48132241  0.91792036  0.18538588    -0.06890
C3053       C  0.48159348  0.93235663  0.22507235    -0.18130
C3054       C  0.49634169  0.93427087  0.26484253     0.10260
S3055       S  0.49533568  0.88408983  0.14388544    -0.33090
S3056       S  0.49586034  0.95359001  0.31371706    -0.33100
H3057       H  0.47820395  0.96067027  0.29729762     0.28270
H3058       H  0.47585961  0.88427163  0.13321554     0.28270
H3059       H  0.52105444  0.89549098  0.23164195     0.18860
H3060       H  0.47096306  0.94300256  0.22184334     0.18870
C3061       C  0.51069676  0.99189075  0.47370697    -0.06970
C3062       C  0.52343193  0.00623188  0.48505520    -0.18090
C3063       C  0.51969427  0.01918708  0.52771071     0.10230
C3064       C  0.50287116  0.01791756  0.55909723    -0.06890
C3065       C  0.49187370  0.00201918  0.55466570    -0.18130
C3066       C  0.49472020  0.98982732  0.50936607     0.10260
S3067       S  0.53679530  0.03692048  0.54119486    -0.33090
S3068       S  0.47605640  0.97377323  0.49477121    -0.33100
H3069       H  0.47824876  0.97419067  0.43404553     0.28270
H3070       H  0.52994477  0.04161227  0.59643014     0.28270
H3071       H  0.53625040  0.00752779  0.46023024     0.18860
H3072       H  0.47918855  0.00058868  0.58027168     0.18870
C3073       C  0.60614612  0.98413086  0.27808490    -0.06970
C3074       C  0.61071042  0.97978985  0.22058082    -0.18090
C3075       C  0.61348985  0.99369509  0.17834036     0.10230
C3076       C  0.61094132  0.01246475  0.19289341    -0.06890
C3077       C  0.60811275  0.01674586  0.25150610    -0.18130
C3078       C  0.60585006  0.00289234  0.29402325     0.10260
S3079       S  0.61778283  0.98647499  0.10505634    -0.33090
S3080       S  0.60061326  0.00944413  0.36761145    -0.33100
H3081       H  0.60349718  0.02845245  0.36025044     0.28270
H3082       H  0.63041866  0.00078169  0.09244323     0.28270
H3083       H  0.61087225  0.96551366  0.20754698     0.18860
H3084       H  0.60591642  0.03099379  0.26302013     0.18870
C3085       C  0.60168966  0.00562794  0.76843308    -0.06970
C3086       C  0.60298409  0.98705641  0.78708343    -0.18090
C3087       C  0.60069814  0.97240102  0.74867545     0.10230
C3088       C  0.59704156  0.97619338  0.68978030    -0.06890
C3089       C  0.59681514  0.99468181  0.67071509    -0.18130
C3090       C  0.59930621  0.00930037  0.70871850     0.10260
S3091       S  0.60266344  0.94934054  0.77743719    -0.33090
S3092       S  0.59933283  0.03216694  0.67774256    -0.33100
H3093       H  0.61363527  0.03867506  0.71443409     0.28270
H3094       H  0.61138916  0.94203515  0.72791556     0.28270
H3095       H  0.60516218  0.98377501  0.83246023     0.18860
H3096       H  0.59418347  0.99794028  0.62561337     0.18870
C3097       C  0.15374975  0.37366786  0.12819795    -0.06970
C3098       C  0.13650375  0.36900162  0.15392018    -0.18090
C3099       C  0.11931779  0.37233163  0.12568318     0.10230
C3100       C  0.11887549  0.38143941  0.07088784    -0.06890
C3101       C  0.13612773  0.38612211  0.04495206    -0.18130
C3102       C  0.15341110  0.38232299  0.07270615     0.10260
S3103       S  0.09844449  0.36372011  0.16095897    -0.33090
S3104       S  0.17455319  0.38942803  0.03585093    -0.33100
H3105       H  0.18524359  0.39190789  0.08660805     0.28270
H3106       H  0.08861528  0.36026693  0.10911866     0.28270
H3107       H  0.13640540  0.36160366  0.19501528     0.18860
H3108       H  0.13616642  0.39352518  0.00387789     0.18870
C3109       C  0.35005650  0.36988951  0.82507003    -0.06970
C3110       C  0.34968472  0.37247301  0.88586219    -0.18090
C3111       C  0.36489133  0.38004853  0.91619075     0.10230
C3112       C  0.38103885  0.38584377  0.88560271    -0.06890
C3113       C  0.38138988  0.38334427  0.82484143    -0.18130
C3114       C  0.36624436  0.37569142  0.79452716     0.10260
S3115       S  0.36251227  0.38235847  0.99356206    -0.33090
S3116       S  0.36895054  0.37311166  0.71732303    -0.33100
H3117       H  0.35227173  0.38276860  0.70444206     0.28270
H3118       H  0.37862782  0.37169171  0.00538888     0.28270
H3119       H  0.33758523  0.36796717  0.91068199     0.18860
H3120       H  0.39356484  0.38773378  0.80014819     0.18870
C3121       C  0.26751046  0.33122394  0.51805242    -0.06970
C3122       C  0.25923559  0.34885297  0.50892031    -0.18090
C3123       C  0.24295686  0.35139681  0.47246849     0.10230
C3124       C  0.23316796  0.33586307  0.45026465    -0.06890
C3125       C  0.24062872  0.31860865  0.46559012    -0.18130
C3126       C  0.25853129  0.31641291  0.48914833     0.10260
S3127       S  0.23475139  0.37447953  0.45949129    -0.33090
S3128       S  0.26959559  0.29466045  0.47247470    -0.33100
H3129       H  0.28703912  0.30266492  0.45859138     0.28270
H3130       H  0.21569758  0.36972385  0.45403982     0.28270
H3131       H  0.26551889  0.36068885  0.52939306     0.18860
H3132       H  0.23329679  0.30624374  0.45376357     0.18870
C3133       C  0.27957141  0.32849505  0.95364815    -0.06970
C3134       C  0.27055811  0.34570274  0.95768074    -0.18090
C3135       C  0.25390977  0.34785549  0.98969856     0.10230
C3136       C  0.24535666  0.33228468  0.01523877    -0.06890
C3137       C  0.25424183  0.31513120  0.01045549    -0.18130
C3138       C  0.27167231  0.31330116  0.98312471     0.10260
S3139       S  0.24395849  0.37060779  0.99490823    -0.33090
S3140       S  0.28293983  0.29107565  0.98606359    -0.33100
H3141       H  0.30121915  0.29812984  0.99147682     0.28270
H3142       H  0.22540833  0.36498184  0.00601935     0.28270
H3143       H  0.27615628  0.35738589  0.93385101     0.18860
H3144       H  0.24802634  0.30315347  0.03097142     0.18870
C3145       C  0.12546806  0.09446328  0.58853035    -0.06970
C3146       C  0.12333779  0.09884136  0.64770600    -0.18090
C3147       C  0.13602771  0.11034000  0.67614586     0.10230
C3148       C  0.15103503  0.11822173  0.64474936    -0.06890
C3149       C  0.15425043  0.11253184  0.58764620    -0.18130
C3150       C  0.14204060  0.10047613  0.55973856     0.10260
S3151       S  0.13118670  0.11590719  0.75058430    -0.33090
S3152       S  0.14841233  0.09411625  0.48704690    -0.33100
H3153       H  0.14744643  0.07520836  0.50031077     0.28270
H3154       H  0.14893503  0.10975466  0.76966895     0.28270
H3155       H  0.11127430  0.09388784  0.67180772     0.18860
H3156       H  0.16611115  0.11806811  0.56373760     0.18870
C3157       C  0.16198328  0.25976198  0.41831160    -0.06970
C3158       C  0.15523472  0.26276073  0.47425194    -0.18090
C3159       C  0.15401918  0.24817084  0.51406975     0.10230
C3160       C  0.16167318  0.23077900  0.50011940    -0.06890
C3161       C  0.16646771  0.22731486  0.44228563    -0.18130
C3162       C  0.16569096  0.24153400  0.40060902     0.10260
S3163       S  0.14277457  0.25251544  0.58239904    -0.33090
S3164       S  0.16993160  0.23597083  0.32579359    -0.33100
H3165       H  0.15648866  0.24839398  0.30387831     0.28270
H3166       H  0.13745658  0.23411977  0.59187524     0.28270
H3167       H  0.15130994  0.27651703  0.48733865     0.18860
H3168       H  0.17160675  0.21385250  0.43018552     0.18870
C3169       C  0.15779073  0.24516270  0.92026229    -0.06970
C3170       C  0.15114266  0.24231361  0.97680425    -0.18090
C3171       C  0.15396942  0.25550300  0.02007206     0.10230
C3172       C  0.16432539  0.27173188  0.00754892    -0.06890
C3173       C  0.16932637  0.27537046  0.94974743    -0.18130
C3174       C  0.16609416  0.26233910  0.90619240     0.10260
S3175       S  0.14502603  0.25032661  0.09158791    -0.33090
S3176       S  0.17482455  0.26751529  0.83461106    -0.33100
H3177       H  0.16106211  0.25710815  0.80644330     0.28270
H3178       H  0.14319671  0.26881432  0.10811692     0.28270
H3179       H  0.14482421  0.22923708  0.98833842     0.18860
H3180       H  0.17722697  0.28768089  0.93926265     0.18870
C3181       C  0.27343805  0.24555000  0.71268025    -0.06970
C3182       C  0.25932613  0.24341040  0.67164829    -0.18090
C3183       C  0.24053438  0.24550241  0.68638736     0.10230
C3184       C  0.23555475  0.24924112  0.74506737    -0.06890
C3185       C  0.24975402  0.25096089  0.78640908    -0.18130
C3186       C  0.26855648  0.24876056  0.77147711     0.10260
S3187       S  0.22377027  0.24078534  0.62981623    -0.33090
S3188       S  0.28560352  0.24993261  0.82905169    -0.33100
H3189       H  0.27314106  0.24923568  0.87639379     0.28270
H3190       H  0.23573722  0.24388674  0.58212325     0.28270
H3191       H  0.26315985  0.24028018  0.62727329     0.18860
H3192       H  0.24591416  0.25312529  0.83135831     0.18870
C3193       C  0.38878965  0.11415667  0.37366783    -0.06970
C3194       C  0.38730186  0.11517997  0.31267143    -0.18090
C3195       C  0.38083131  0.13102447  0.28392372     0.10230
C3196       C  0.37510244  0.14645810  0.31652158    -0.06890
C3197       C  0.37712068  0.14555562  0.37755154    -0.18130
C3198       C  0.38353957  0.12967891  0.40619980     0.10260
S3199       S  0.38004141  0.13025646  0.20582306    -0.33090
S3200       S  0.38519583  0.13039107  0.48414356    -0.33100
H3201       H  0.37250162  0.11575783  0.49176116     0.28270
H3202       H  0.38987439  0.14690336  0.19891585     0.28270
H3203       H  0.39159223  0.10354635  0.28670814     0.18860
H3204       H  0.37294630  0.15713937  0.40387429     0.18870
C3205       C  0.33642771  0.22078341  0.45541900    -0.06970
C3206       C  0.35242333  0.23219923  0.45254766    -0.18090
C3207       C  0.35345675  0.24867505  0.48416267     0.10230
C3208       C  0.33801697  0.25400447  0.51858547    -0.06890
C3209       C  0.32290471  0.24170468  0.52489741    -0.18130
C3210       C  0.32213955  0.22515214  0.49507454     0.10260
S3211       S  0.37386857  0.26295798  0.47431914    -0.33090
S3212       S  0.30113232  0.21152330  0.50282475    -0.33100
H3213       H  0.31015723  0.19457177  0.49398299     0.28270
H3214       H  0.36430349  0.27981694  0.47893449     0.28270
H3215       H  0.36331515  0.22920459  0.42114406     0.18860
H3216       H  0.31115898  0.24521743  0.55227682     0.18870
C3217       C  0.34032900  0.26068951  0.94864222    -0.06970
C3218       C  0.32492511  0.24905969  0.94244713    -0.18090
C3219       C  0.32457833  0.23161132  0.96769147     0.10230
C3220       C  0.33779551  0.22675493  0.01131668    -0.06890
C3221       C  0.35300697  0.23884382  0.02048971    -0.18130
C3222       C  0.35482086  0.25535392  0.98759996     0.10260
S3223       S  0.30778743  0.21561540  0.93812744    -0.33090
S3224       S  0.37563821  0.26899563  0.99760938    -0.33100
H3225       H  0.36831156  0.28542383  0.97414569     0.28270
H3226       H  0.31853002  0.19981532  0.95104245     0.28270
H3227       H  0.31395467  0.25280831  0.91210649     0.18860
H3228       H  0.36331002  0.23562000  0.05375117     0.18870
C3229       C  0.24208152  0.22043092  0.21594074    -0.06970
C3230       C  0.22753419  0.21333244  0.25099306    -0.18090
C3231       C  0.22246712  0.22212487  0.30220604     0.10230
C3232       C  0.23049196  0.23913497  0.31510815    -0.06890
C3233       C  0.24766335  0.24356954  0.28902578    -0.18130
C3234       C  0.25182272  0.23627728  0.23472047     0.10260
S3235       S  0.20766642  0.21047664  0.35367362    -0.33090
S3236       S  0.26819795  0.24901008  0.19035084    -0.33100
H3237       H  0.25818643  0.24689539  0.13822507     0.28270
H3238       H  0.20904042  0.22418136  0.39629882     0.28270
H3239       H  0.22102751  0.20031276  0.24071923     0.18860
H3240       H  0.25471640  0.25613452  0.30145406     0.18870
C3241       C  0.22761566  0.15666742  0.93705444    -0.06970
C3242       C  0.24507760  0.14969587  0.91877764    -0.18090
C3243       C  0.26026428  0.14806965  0.95768401     0.10230
C3244       C  0.25780733  0.15326088  0.01602916    -0.06890
C3245       C  0.23990315  0.15864192  0.03503953    -0.18130
C3246       C  0.22487468  0.16048000  0.99634976     0.10260
S3247       S  0.28272513  0.14102189  0.92943417    -0.33090
S3248       S  0.20299420  0.16933206  0.02425129    -0.33100
H3249       H  0.19148503  0.16158037  0.98127495     0.28270
H3250       H  0.29033189  0.13520048  0.98292588     0.28270
H3251       H  0.24735299  0.14696473  0.87311987     0.18860
H3252       H  0.23796344  0.16284270  0.07972050     0.18870
C3253       C  0.22968254  0.16775850  0.50184597    -0.06970
C3254       C  0.23390716  0.15025780  0.47992963    -0.18090
C3255       C  0.24992983  0.14733783  0.44519853     0.10230
C3256       C  0.26276456  0.16189535  0.43524101    -0.06890
C3257       C  0.25867357  0.17917972  0.45834861    -0.18130
C3258       C  0.24192296  0.18245523  0.48831066     0.10260
S3259       S  0.25362715  0.12461293  0.41670862    -0.33090
S3260       S  0.23686887  0.20586293  0.50832767    -0.33100
H3261       H  0.21724242  0.20376785  0.51025850     0.28270
H3262       H  0.27326069  0.12600350  0.41153999     0.28270
H3263       H  0.22508635  0.13868632  0.49167560     0.18860
H3264       H  0.26796109  0.19062613  0.44929668     0.18870
loop_ 
_geom_bond_atom_site_label_1 
_geom_bond_atom_site_label_2 
_geom_bond_distance 
_geom_bond_site_symmetry_2 
_ccdc_geom_bond_type 
Zr1           O2   2.436       .  S
Zr1           O3   2.464       .  S
Zr1           O4   2.403       .  S
Zr1           O7   2.472       .  S
Zr1           O9   2.390       .  S
Zr1          O10   2.365       .  S
Zr1          O11   2.434       .  S
Zr1          O12   2.411       .  S
O2           H58   0.990       .  S
O2           H66   0.990       .  S
O3           C23   1.289       .  A
O4           C25   1.276       .  A
O5          Zr15   2.401       .  S
O5           C24   1.269       .  A
O6          Zr14   2.475       .  S
O6           C25   1.291       .  A
O7           C24   1.286       .  A
O8          Zr16   2.384       .  S
O8           C23   1.273       .  A
O9          Zr14   2.404       .  S
O9          Zr16   2.361       .  S
O10         Zr15   2.405       .  S
O10         Zr16   2.378       .  S
O10          H45   0.964       .  S
O11         Zr14   2.425       .  S
O11         Zr31   2.389       .  S
O11          H48   0.965       .  S
O12         Zr15   2.392       .  S
O12         Zr31   2.417       .  S
Zr13         O38   2.442       .  S
Zr13         O32   2.425       .  S
Zr13         O40   2.424       .  S
Zr13         O28   2.411       .  S
Zr13         O19   2.407       .  S
Zr13         O20   2.414       .  S
Zr13         O21   2.389       .  S
Zr13         O22   2.398       .  S
Zr14         O33   2.434       .  S
Zr14         O26   2.435       .  S
Zr14         O27   2.495       .  S
Zr14         O20   2.409       .  S
Zr14         O21   2.414       .  S
Zr15         O17   2.441       .  S
Zr15         O39   2.442       .  S
Zr15         O41   2.412       .  S
Zr15         O19   2.401       .  S
Zr15         O22   2.393       .  S
Zr16         O42   2.434       .  S
Zr16         O43   2.437       .  S
Zr16         O18   2.441       .  S
Zr16         O19   2.384       .  S
Zr16         O20   2.364       .  S
O17          H54   0.990       .  S
O18          H49   0.990       .  S
O18          H63   0.990       .  S
O20          H46   0.962       .  S
O21         Zr31   2.388       .  S
O22         Zr31   2.358       .  S
O22          H47   0.964       .  S
C23        C3205   1.471       .  S
C24        C3256   1.483       .  S
C25        C3196   1.494       .  S
O26          H62   0.990       .  S
O27          C29   1.296       .  A
O28          C29   1.281       .  A
C29        C3220   1.499       .  S
O30         Zr31   2.440       .  S
O30          H59   0.990       .  S
Zr31         O34   2.437       .  S
Zr31         O35   2.437       .  S
Zr31         O36   2.454       .  S
O32          C37   1.281       .  A
O33          H50   0.990       .  S
O33          H65   0.990       .  S
O34          H51   0.990       .  S
O35          H55   0.990       .  S
O35          H64   0.990       .  S
O36          C37   1.286       .  A
C37        C3244   1.472       .  S
O38          H57   0.989       .  S
O38          H61   0.990       .  S
O39          H53   0.987       .  S
O39          H60   0.986       .  S
O40          C44   1.271       .  A
O41          C44   1.262       .  A
O42          H52   0.990       .  S
O43          H56   0.990       .  S
C44        C3229   1.466       .  S
Zr67         O68   2.442       .  S
Zr67         O69   2.418       .  S
Zr67         O70   2.444       .  S
Zr67         O73   2.435       .  S
Zr67         O75   2.372       .  S
Zr67         O76   2.393       .  S
Zr67         O77   2.406       .  S
Zr67         O78   2.397       .  S
O68         H124   0.990       .  S
O68         H132   0.991       .  S
O69          C89   1.279       .  A
O70          C91   1.287       .  A
O71         Zr81   2.451       .  S
O71          C90   1.287       .  A
O72         Zr80   2.411       .  S
O72          C91   1.271       .  A
O73          C90   1.285       .  A
O74         Zr82   2.482       .  S
O74          C89   1.291       .  A
O75         Zr80   2.361       .  S
O75         Zr82   2.364       .  S
O76         Zr81   2.407       .  S
O76         Zr82   2.385       .  S
O76         H111   0.966       .  S
O77         Zr80   2.418       .  S
O77         Zr97   2.345       .  S
O77         H114   0.957       .  S
O78         Zr81   2.379       .  S
O78         Zr97   2.358       .  S
Zr79        O104   2.440       .  S
Zr79         O98   2.500       .  S
Zr79        O106   2.418       .  S
Zr79         O94   2.470       .  S
Zr79         O85   2.434       .  S
Zr79         O86   2.426       .  S
Zr79         O87   2.371       .  S
Zr79         O88   2.389       .  S
Zr80         O99   2.467       .  S
Zr80         O92   2.431       .  S
Zr80         O93   2.404       .  S
Zr80         O86   2.387       .  S
Zr80         O87   2.419       .  S
Zr81         O83   2.436       .  S
Zr81        O105   2.437       .  S
Zr81        O107   2.435       .  S
Zr81         O85   2.392       .  S
Zr81         O88   2.407       .  S
Zr82        O108   2.437       .  S
Zr82        O109   2.437       .  S
Zr82         O84   2.447       .  S
Zr82         O85   2.414       .  S
Zr82         O86   2.430       .  S
O83         H120   0.990       .  S
O84         H115   0.990       .  S
O84         H129   0.989       .  S
O86         H112   0.965       .  S
O87         Zr97   2.409       .  S
O88         Zr97   2.359       .  S
O88         H113   0.966       .  S
C89        C3169   1.484       .  S
C90        C3241   1.474       .  S
C91        C3184   1.467       .  S
O92         H128   0.988       .  S
O93          C95   1.275       .  A
O94          C95   1.286       .  A
C95        C3160   1.479       .  S
O96         Zr97   2.442       .  S
O96         H125   0.990       .  S
Zr97        O100   2.435       .  S
Zr97        O101   2.440       .  S
Zr97        O102   2.370       .  S
O98         C103   1.294       .  A
O99         H116   0.988       .  S
O99         H131   0.989       .  S
O100        H117   0.990       .  S
O101        H121   0.990       .  S
O101        H130   0.989       .  S
O102        C103   1.269       .  A
C103       C3253   1.479       .  S
O104        H123   0.990       .  S
O104        H127   0.990       .  S
O105        H119   0.989       .  S
O105        H126   0.990       .  S
O106        C110   1.283       .  A
O107        C110   1.284       .  A
O108        H118   0.990       .  S
O109        H122   0.990       .  S
C110       C3148   1.477       .  S
Zr133       O134   2.436       .  S
Zr133       O135   2.469       .  S
Zr133       O136   2.396       .  S
Zr133       O139   2.466       .  S
Zr133       O141   2.393       .  S
Zr133       O142   2.387       .  S
Zr133       O143   2.454       .  S
Zr133       O144   2.433       .  S
O134        H190   0.990       .  S
O134        H198   0.990       .  S
O135        C155   1.285       .  A
O136        C157   1.272       .  A
O137       Zr147   2.425       .  S
O137        C156   1.270       .  A
O138       Zr146   2.495       .  S
O138        C157   1.294       .  A
O139        C156   1.282       .  A
O140       Zr148   2.389       .  S
O140        C155   1.266       .  A
O141       Zr146   2.406       .  S
O141       Zr148   2.356       .  S
O142       Zr147   2.419       .  S
O142       Zr148   2.410       .  S
O142        H177   0.966       .  S
O143       Zr146   2.430       .  S
O143       Zr163   2.412       .  S
O143        H180   0.965       .  S
O144       Zr147   2.368       .  S
O144       Zr163   2.435       .  S
Zr145       O170   2.441       .  S
Zr145       O164   2.419       .  S
Zr145       O172   2.445       .  S
Zr145       O160   2.426       .  S
Zr145       O151   2.382       .  S
Zr145       O152   2.387       .  S
Zr145       O153   2.385       .  S
Zr145       O154   2.387       .  S
Zr146       O165   2.434       .  S
Zr146       O158   2.434       .  S
Zr146       O159   2.537       .  S
Zr146       O152   2.405       .  S
Zr146       O153   2.404       .  S
Zr147       O149   2.437       .  S
Zr147       O171   2.456       .  S
Zr147       O173   2.411       .  S
Zr147       O151   2.423       .  S
Zr147       O154   2.347       .  S
Zr148       O174   2.429       .  S
Zr148       O175   2.434       .  S
Zr148       O150   2.440       .  S
Zr148       O151   2.364       .  S
Zr148       O152   2.364       .  S
O149        H186   0.990       .  S
O150        H181   0.990       .  S
O150        H195   0.990       .  S
O152        H178   0.964       .  S
O153       Zr163   2.378       .  S
O154       Zr163   2.369       .  S
O154        H179   0.963       .  S
C155       C3133   1.474       .  S
C156       C3217   1.485       .  S
C157       C3109   1.498       .  S
O158        H194   0.990       .  S
O159        C161   1.303       .  A
O160        C161   1.282       .  A
C161       C3121   1.537       .  S
O162       Zr163   2.442       .  S
O162        H191   0.990       .  S
Zr163       O166   2.435       .  S
Zr163       O167   2.440       .  S
Zr163       O168   2.479       .  S
O164        C169   1.282       .  A
O165        H182   0.990       .  S
O165        H197   0.990       .  S
O166        H183   0.990       .  S
O167        H187   0.990       .  S
O167        H196   0.989       .  S
O168        C169   1.292       .  A
C169       C3208   1.486       .  S
O170        H189   0.984       .  S
O170        H193   0.988       .  S
O171        H185   0.989       .  S
O171        H192   0.989       .  S
O172        C176   1.283       .  A
O173        C176   1.267       .  A
O174        H184   0.990       .  S
O175        H188   0.990       .  S
C176       C3181   1.468       .  S
Zr199       O200   2.442       .  S
Zr199       O201   2.473       .  S
Zr199       O202   2.430       .  S
Zr199       O205   2.484       .  S
Zr199       O207   2.407       .  S
Zr199       O208   2.385       .  S
Zr199       O209   2.439       .  S
Zr199       O210   2.402       .  S
O200        H256   0.990       .  S
O200        H264   0.990       .  S
O201        C221   1.286       .  A
O202        C223   1.278       .  A
O203       Zr213   2.401       .  S
O203        C222   1.278       .  A
O204       Zr212   2.492       .  S
O204        C223   1.296       .  A
O205        C222   1.294       .  A
O206       Zr214   2.399       .  S
O206        C221   1.268       .  A
O207       Zr212   2.421       .  S
O207       Zr214   2.378       .  S
O208       Zr213   2.375       .  S
O208       Zr214   2.390       .  S
O208        H243   0.965       .  S
O209       Zr212   2.445       .  S
O209       Zr229   2.382       .  S
O209        H246   0.963       .  S
O210       Zr213   2.381       .  S
O210       Zr229   2.407       .  S
Zr211       O236   2.439       .  S
Zr211       O230   2.441       .  S
Zr211       O238   2.385       .  S
Zr211       O226   2.429       .  S
Zr211       O217   2.394       .  S
Zr211       O218   2.397       .  S
Zr211       O219   2.380       .  S
Zr211       O220   2.371       .  S
Zr212       O231   2.434       .  S
Zr212       O224   2.435       .  S
Zr212       O225   2.554       .  S
Zr212       O218   2.405       .  S
Zr212       O219   2.405       .  S
Zr213       O215   2.436       .  S
Zr213       O237   2.436       .  S
Zr213       O239   2.408       .  S
Zr213       O217   2.374       .  S
Zr213       O220   2.343       .  S
Zr214       O240   2.433       .  S
Zr214       O241   2.439       .  S
Zr214       O216   2.439       .  S
Zr214       O217   2.389       .  S
Zr214       O218   2.364       .  S
O215        H252   0.990       .  S
O216        H247   0.990       .  S
O216        H261   0.990       .  S
O218        H244   0.963       .  S
O219       Zr229   2.385       .  S
O220       Zr229   2.353       .  S
O220        H245   0.961       .  S
C221       C3136   1.473       .  S
C222       C3172   1.490       .  S
C223       C3097   1.495       .  S
O224        H260   0.990       .  S
O225        C227   1.304       .  A
O226        C227   1.282       .  A
C227       C3124   1.535       .  S
O228       Zr229   2.440       .  S
O228        H257   0.990       .  S
Zr229       O232   2.436       .  S
Zr229       O233   2.436       .  S
Zr229       O234   2.448       .  S
O230        C235   1.288       .  A
O231        H248   0.990       .  S
O231        H263   0.990       .  S
O232        H249   0.990       .  S
O233        H253   0.990       .  S
O233        H262   0.990       .  S
O234        C235   1.286       .  A
C235       C3157   1.474       .  S
O236        H255   0.989       .  S
O236        H259   0.988       .  S
O237        H251   0.990       .  S
O237        H258   0.990       .  S
O238        C242   1.275       .  A
O239        C242   1.285       .  A
O240        H250   0.991       .  S
O241        H254   0.989       .  S
C242       C3232   1.443       .  S
Zr265       O266   2.439       .  S
Zr265       O267   2.470       .  S
Zr265       O268   2.425       .  S
Zr265       O271   2.504       .  S
Zr265       O273   2.405       .  S
Zr265       O274   2.385       .  S
Zr265       O275   2.445       .  S
Zr265       O276   2.401       .  S
O266        H322   0.990       .  S
O266        H330   0.990       .  S
O267        C287   1.283       .  A
O268        C289   1.284       .  A
O269       Zr279   2.405       .  S
O269        C288   1.275       .  A
O270       Zr278   2.467       .  S
O270        C289   1.292       .  A
O271        C288   1.294       .  A
O272       Zr280   2.384       .  S
O272        C287   1.263       .  A
O273       Zr278   2.397       .  S
O273       Zr280   2.358       .  S
O274       Zr279   2.392       .  S
O274       Zr280   2.395       .  S
O274        H309   0.965       .  S
O275       Zr278   2.418       .  S
O275       Zr295   2.411       .  S
O275        H312   0.966       .  S
O276       Zr279   2.386       .  S
O276       Zr295   2.411       .  S
Zr277       O302   2.444       .  S
Zr277       O296   2.438       .  S
Zr277       O304   2.428       .  S
Zr277       O292   2.448       .  S
Zr277       O283   2.410       .  S
Zr277       O284   2.408       .  S
Zr277       O285   2.391       .  S
Zr277       O286   2.402       .  S
Zr278       O297   2.433       .  S
Zr278       O290   2.434       .  S
Zr278       O291   2.491       .  S
Zr278       O284   2.404       .  S
Zr278       O285   2.407       .  S
Zr279       O281   2.438       .  S
Zr279       O303   2.444       .  S
Zr279       O305   2.413       .  S
Zr279       O283   2.400       .  S
Zr279       O286   2.382       .  S
Zr280       O306   2.439       .  S
Zr280       O307   2.433   1_565  S
Zr280       O282   2.445       .  S
Zr280       O283   2.366       .  S
Zr280       O284   2.368       .  S
O281        H318   0.989       .  S
O282        H313   0.988       .  S
O282        H327   0.990       .  S
O284        H310   0.959       .  S
O285       Zr295   2.391       .  S
O286       Zr295   2.373       .  S
O286        H311   0.963       .  S
C287       C3088   1.482       .  S
C288       C3037   1.517       .  S
C289       C3025   1.490       .  S
O290        H326   0.990       .  S
O291        C293   1.295       .  A
O292        C293   1.285       .  A
C293       C3073   1.493       .  S
O294       Zr295   2.440       .  S
O294        H323   0.990       .  S
Zr295       O298   2.436       .  S
Zr295       O299   2.437       .  S
Zr295       O300   2.456       .  S
O296        C301   1.284       .  A
O297        H314   0.990       .  S
O297        H329   0.990       .  S
O298        H315   0.990       .  S
O299        H319   0.990       .  S
O299        H328   0.990       .  S
O300        C301   1.287       .  A
C301       C3049   1.486       .  S
O302        H321   0.991       .  S
O302        H325   0.990       .  S
O303        H317   0.988       .  S
O303        H324   0.990       .  S
O304        C308   1.276       .  A
O305        C308   1.267       .  A
O306        H316   0.990       .  S
O307        H320   0.990       .  S
C308       C3061   1.468       .  S
Zr331       O332   2.443       .  S
Zr331       O333   2.465       .  S
Zr331       O334   2.426       .  S
Zr331       O337   2.480       .  S
Zr331       O339   2.399       .  S
Zr331       O340   2.388       .  S
Zr331       O341   2.435       .  S
Zr331       O342   2.403       .  S
O332        H388   0.990       .  S
O332        H396   0.991       .  S
O333        C353   1.284       .  A
O334        C355   1.282       .  A
O335       Zr345   2.410       .  S
O335        C354   1.275       .  A
O336       Zr344   2.476   1_556  S
O336        C355   1.294       .  A
O337        C354   1.286       .  A
O338       Zr346   2.384       .  S
O338        C353   1.266       .  A
O339       Zr344   2.404   1_556  S
O339       Zr346   2.380       .  S
O340       Zr345   2.382       .  S
O340       Zr346   2.401       .  S
O340        H375   0.966       .  S
O341       Zr344   2.414   1_556  S
O341       Zr361   2.400   1_556  S
O341        H378   0.961       .  S
O342       Zr345   2.381       .  S
O342       Zr361   2.419   1_556  S
Zr343       O368   2.444       .  S
Zr343       O362   2.408       .  S
Zr343       O370   2.467       .  S
Zr343       O358   2.430       .  S
Zr343       O349   2.448   1_554  S
Zr343       O350   2.403       .  S
Zr343       O351   2.389       .  S
Zr343       O352   2.466       .  S
Zr344       O363   2.434       .  S
Zr344       O356   2.434       .  S
Zr344       O357   2.484       .  S
Zr344       O350   2.411       .  S
Zr344       O351   2.408       .  S
Zr345       O347   2.426       .  S
Zr345       O369   2.434       .  S
Zr345       O371   2.344   1_556  S
Zr345       O349   2.403       .  S
Zr345       O352   2.409   1_556  S
Zr346       O372   2.439   1_545  S
Zr346       O373   2.435   1_545  S
Zr346       O348   2.439   1_545  S
Zr346       O349   2.370       .  S
Zr346       O350   2.373   1_556  S
O347        H384   0.990       .  S
O348        H379   0.989       .  S
O348        H393   0.990       .  S
O350        H376   0.962       .  S
O351       Zr361   2.393       .  S
O352       Zr361   2.368       .  S
O352        H377   0.974       .  S
C353       C3085   1.488       .  S
C354       C3004   1.492       .  S
C355       C2977   1.480       .  S
O356        H392   0.990   1_554  S
O357        C359   1.293       .  A
O358        C359   1.282       .  A
C359       C3076   1.494       .  S
O360       Zr361   2.440   1_556  S
O360        H389   0.990   1_556  S
Zr361       O364   2.436       .  S
Zr361       O365   2.438   1_554  S
Zr361       O366   2.460       .  S
O362        C367   1.280       .  A
O363        H380   0.990       .  S
O363        H395   0.989       .  S
O364        H381   0.990       .  S
O365        H385   0.990   1_556  S
O365        H394   0.990       .  S
O366        C367   1.287       .  A
C367       C2989   1.474       .  S
O368        H387   0.990   1_545  S
O368        H391   0.991       .  S
O369        H383   0.990       .  S
O369        H390   0.990       .  S
O370        C374   1.255       .  A
O371        C374   1.250       .  A
O372        H382   0.990       .  S
O373        H386   0.991   1_556  S
C374       C3013   1.450       .  S
Zr397       O398   2.441       .  S
Zr397       O399   2.463       .  S
Zr397       O400   2.425       .  S
Zr397       O403   2.482       .  S
Zr397       O405   2.396       .  S
Zr397       O406   2.374       .  S
Zr397       O407   2.427   1_554  S
Zr397       O408   2.400       .  S
O398        H454   0.990       .  S
O398        H462   0.990       .  S
O399        C419   1.288       .  A
O400        C421   1.284       .  A
O401       Zr411   2.387   1_554  S
O401        C420   1.271       .  A
O402       Zr410   2.483       .  S
O402        C421   1.296   1_556  A
O403        C420   1.290       .  A
O404       Zr412   2.400       .  S
O404        C419   1.273       .  A
O405       Zr410   2.408   1_554  S
O405       Zr412   2.368       .  S
O406       Zr411   2.394   1_554  S
O406       Zr412   2.378       .  S
O406        H441   0.965       .  S
O407       Zr410   2.413       .  S
O407       Zr427   2.384       .  S
O407        H444   0.962       .  S
O408       Zr411   2.392   1_554  S
O408       Zr427   2.409   1_554  S
Zr409       O434   2.441       .  S
Zr409       O428   2.473       .  S
Zr409       O436   2.438       .  S
Zr409       O424   2.438       .  S
Zr409       O415   2.417       .  S
Zr409       O416   2.424       .  S
Zr409       O417   2.394       .  S
Zr409       O418   2.388       .  S
Zr410       O429   2.433       .  S
Zr410       O422   2.435       .  S
Zr410       O423   2.495       .  S
Zr410       O416   2.403       .  S
Zr410       O417   2.415       .  S
Zr411       O413   2.439   1_565  S
Zr411       O435   2.445   1_556  S
Zr411       O437   2.412       .  S
Zr411       O415   2.397       .  S
Zr411       O418   2.371       .  S
Zr412       O438   2.435       .  S
Zr412       O439   2.434   1_554  S
Zr412       O414   2.439   1_554  S
Zr412       O415   2.385   1_554  S
Zr412       O416   2.369   1_554  S
O413        H450   0.988   1_556  S
O414        H445   0.990   1_556  S
O414        H459   0.990       .  S
O416        H442   0.962       .  S
O417       Zr427   2.391       .  S
O418       Zr427   2.363       .  S
O418        H443   0.958       .  S
C419       C3052   1.481       .  S
C420       C2965   1.490       .  S
C421       C2941   1.486       .  S
O422        H458   0.990       .  S
O423        C425   1.297       .  A
O424        C425   1.285       .  A
C425       C3040   1.489       .  S
O426       Zr427   2.440       .  S
O426        H455   0.990       .  S
Zr427       O430   2.436       .  S
Zr427       O431   2.437       .  S
Zr427       O432   2.440       .  S
O428        C433   1.290       .  A
O429        H446   0.990       .  S
O429        H461   0.990       .  S
O430        H447   0.990       .  S
O431        H451   0.990       .  S
O431        H460   0.990       .  S
O432        C433   1.284       .  A
C433       C2953   1.483       .  S
O434        H453   0.990       .  S
O434        H457   0.991       .  S
O435        H449   0.987   1_565  S
O435        H456   0.990       .  S
O436        C440   1.278       .  A
O437        C440   1.264       .  A
O438        H448   0.990       .  S
O439        H452   0.990       .  S
C440       C3016   1.467   1_565  S
Zr463       O464   2.444       .  S
Zr463       O465   2.404       .  S
Zr463       O466   2.409       .  S
Zr463       O469   2.410       .  S
Zr463       O471   2.391       .  S
Zr463       O472   2.386       .  S
Zr463       O473   2.426       .  S
Zr463       O474   2.393       .  S
O464        H520   0.990       .  S
O464        H528   0.990       .  S
O465        C485   1.273       .  A
O466        C487   1.270       .  A
O467       Zr477   2.486       .  S
O467        C486   1.290       .  A
O468       Zr476   2.437       .  S
O468        C487   1.276       .  A
O469        C486   1.275       .  A
O470       Zr478   2.484       .  S
O470        C485   1.290       .  A
O471       Zr476   2.383       .  S
O471       Zr478   2.344       .  S
O472       Zr477   2.409       .  S
O472       Zr478   2.388       .  S
O472        H507   0.966       .  S
O473       Zr476   2.405       .  S
O473       Zr493   2.376       .  S
O473        H510   0.958       .  S
O474       Zr477   2.380       .  S
O474       Zr493   2.362       .  S
Zr475       O500   2.442       .  S
Zr475       O494   2.489       .  S
Zr475       O502   2.396       .  S
Zr475       O490   2.447       .  S
Zr475       O481   2.417       .  S
Zr475       O482   2.418       .  S
Zr475       O483   2.360       .  S
Zr475       O484   2.387       .  S
Zr476       O495   2.429       .  S
Zr476       O488   2.431       .  S
Zr476       O489   2.413       .  S
Zr476       O482   2.401       .  S
Zr476       O483   2.386       .  S
Zr477       O479   2.435       .  S
Zr477       O501   2.437       .  S
Zr477       O503   2.464       .  S
Zr477       O481   2.396       .  S
Zr477       O484   2.407       .  S
Zr478       O504   2.436       .  S
Zr478       O505   2.435       .  S
Zr478       O480   2.436       .  S
Zr478       O481   2.413       .  S
Zr478       O482   2.417       .  S
O479        H516   0.990       .  S
O480        H511   0.990       .  S
O480        H525   0.990       .  S
O482        H508   0.964       .  S
O483       Zr493   2.383       .  S
O484       Zr493   2.389       .  S
O484        H509   0.966       .  S
C485       C3001   1.507       .  S
C486       C2956   1.490       .  S
C487       C3064   1.464       .  S
O488        H524   0.990       .  S
O489        C491   1.279       .  A
O490        C491   1.283       .  A
C491       C2992   1.465       .  S
O492       Zr493   2.439   1_565  S
O492        H521   0.990       .  S
Zr493       O496   2.436   1_545  S
Zr493       O497   2.438       .  S
Zr493       O498   2.363       .  S
O494        C499   1.292       .  A
O495        H512   0.988       .  S
O495        H527   0.984       .  S
O496        H513   0.990       .  S
O497        H517   0.990       .  S
O497        H526   0.989       .  S
O498        C499   1.270       .  A
C499       C2968   1.499       .  S
O500        H519   0.991       .  S
O500        H523   0.990       .  S
O501        H515   0.990       .  S
O501        H522   0.990       .  S
O502        C506   1.278       .  A
O503        C506   1.290       .  A
O504        H514   0.990       .  S
O505        H518   0.990       .  S
C506       C3193   1.487       .  S
Zr529       O530   2.439       .  S
Zr529       O531   2.450       .  S
Zr529       O532   2.419       .  S
Zr529       O535   2.497       .  S
Zr529       O537   2.403       .  S
Zr529       O538   2.383       .  S
Zr529       O539   2.433       .  S
Zr529       O540   2.390       .  S
O530        H586   0.990       .  S
O530        H594   0.989       .  S
O531        C551   1.282       .  A
O532        C553   1.282       .  A
O533       Zr543   2.401       .  S
O533        C552   1.276       .  A
O534       Zr542   2.458       .  S
O534        C553   1.289       .  A
O535        C552   1.293       .  A
O536       Zr544   2.392       .  S
O536        C551   1.268       .  A
O537       Zr542   2.403       .  S
O537       Zr544   2.366       .  S
O538       Zr543   2.389       .  S
O538       Zr544   2.395       .  S
O538        H573   0.964       .  S
O539       Zr542   2.417       .  S
O539       Zr559   2.405       .  S
O539        H576   0.965       .  S
O540       Zr543   2.384       .  S
O540       Zr559   2.401       .  S
Zr541       O566   2.444       .  S
Zr541       O560   2.426       .  S
Zr541       O568   2.427       .  S
Zr541       O556   2.402       .  S
Zr541       O547   2.405       .  S
Zr541       O548   2.417       .  S
Zr541       O549   2.386       .  S
Zr541       O550   2.397       .  S
Zr542       O561   2.434       .  S
Zr542       O554   2.435       .  S
Zr542       O555   2.478       .  S
Zr542       O548   2.400       .  S
Zr542       O549   2.404       .  S
Zr543       O545   2.439   1_655  S
Zr543       O567   2.446       .  S
Zr543       O569   2.415   1_655  S
Zr543       O547   2.401       .  S
Zr543       O550   2.386       .  S
Zr544       O570   2.436       .  S
Zr544       O571   2.433       .  S
Zr544       O546   2.437       .  S
Zr544       O547   2.370       .  S
Zr544       O548   2.380       .  S
O545        H582   0.990       .  S
O546        H577   0.991       .  S
O546        H591   0.990       .  S
O548        H574   0.964       .  S
O549       Zr559   2.383       .  S
O550       Zr559   2.374       .  S
O550        H575   0.964       .  S
C551       C2932   1.483       .  S
C552       C2884   1.510   1_655  S
C553       C2869   1.478       .  S
O554        H590   0.990       .  S
O555        C557   1.292       .  A
O556        C557   1.278       .  A
C557       C2917   1.480       .  S
O558       Zr559   2.439       .  S
O558        H587   0.990       .  S
Zr559       O562   2.436       .  S
Zr559       O563   2.437       .  S
Zr559       O564   2.447       .  S
O560        C565   1.281       .  A
O561        H578   0.990       .  S
O561        H593   0.990       .  S
O562        H579   0.990       .  S
O563        H583   0.990       .  S
O563        H592   0.990   1_655  S
O564        C565   1.285       .  A
C565       C2893   1.468   1_655  S
O566        H585   0.990       .  S
O566        H589   0.991       .  S
O567        H581   0.988   1_655  S
O567        H588   0.990       .  S
O568        C572   1.273       .  A
O569        C572   1.267   1_455  A
O570        H580   0.990       .  S
O571        H584   0.990       .  S
C572       C2905   1.470   1_655  S
Zr595       O596   2.442       .  S
Zr595       O597   2.451       .  S
Zr595       O598   2.433       .  S
Zr595       O601   2.405       .  S
Zr595       O603   2.373       .  S
Zr595       O604   2.397       .  S
Zr595       O605   2.427       .  S
Zr595       O606   2.420       .  S
O596        H652   0.990       .  S
O596        H660   0.990       .  S
O597        C617   1.286       .  A
O598        C619   1.274       .  A
O599       Zr609   2.512       .  S
O599        C618   1.295       .  A
O600       Zr608   2.423   1_565  S
O600        C619   1.273   1_565  A
O601        C618   1.275       .  A
O602       Zr610   2.434       .  S
O602        C617   1.282       .  A
O603       Zr608   2.385       .  S
O603       Zr610   2.371       .  S
O604       Zr609   2.416       .  S
O604       Zr610   2.381       .  S
O604        H639   0.966       .  S
O605       Zr608   2.397       .  S
O605       Zr625   2.381       .  S
O605        H642   0.959       .  S
O606       Zr609   2.382       .  S
O606       Zr625   2.375       .  S
Zr607       O632   2.444       .  S
Zr607       O626   2.452       .  S
Zr607       O634   2.390       .  S
Zr607       O622   2.492       .  S
Zr607       O613   2.421   1_554  S
Zr607       O614   2.394       .  S
Zr607       O615   2.359       .  S
Zr607       O616   2.408       .  S
Zr608       O627   2.429   1_556  S
Zr608       O620   2.435   1_546  S
Zr608       O621   2.371   1_556  S
Zr608       O614   2.405   1_556  S
Zr608       O615   2.376   1_556  S
Zr609       O611   2.436       .  S
Zr609       O633   2.435       .  S
Zr609       O635   2.491       .  S
Zr609       O613   2.401       .  S
Zr609       O616   2.398   1_556  S
Zr610       O636   2.437       .  S
Zr610       O637   2.436       .  S
Zr610       O612   2.436       .  S
Zr610       O613   2.389       .  S
Zr610       O614   2.396   1_556  S
O611        H648   0.990       .  S
O612        H643   0.990       .  S
O612        H657   0.990   1_545  S
O614        H640   0.965       .  S
O615       Zr625   2.383   1_554  S
O616       Zr625   2.362   1_554  S
O616        H641   0.966       .  S
C617       C2920   1.479   1_545  S
C618       C2848   1.499       .  S
C619       C2860   1.491   1_545  S
O620        H656   0.990   1_554  S
O621        C623   1.274       .  A
O622        C623   1.293       .  A
C623       C2929   1.477   1_545  S
O624       Zr625   2.441   1_455  S
O624        H653   0.990       .  S
Zr625       O628   2.438   1_556  S
Zr625       O629   2.437       .  S
Zr625       O630   2.415   1_556  S
O626        C631   1.286       .  A
O627        H644   0.987       .  S
O627        H659   0.987       .  S
O628        H645   0.990   1_655  S
O629        H649   0.990       .  S
O629        H658   0.989       .  S
O630        C631   1.277       .  A
C631       C2833   1.468       .  S
O632        H651   0.990       .  S
O632        H655   0.989       .  S
O633        H647   0.990       .  S
O633        H654   0.990       .  S
O634        C638   1.278       .  A
O635        C638   1.296   1_556  A
O636        H646   0.990       .  S
O637        H650   0.990       .  S
C638       C2821   1.489       .  S
Zr661       O662   2.438       .  S
Zr661       O663   2.461       .  S
Zr661       O664   2.413       .  S
Zr661       O667   2.453       .  S
Zr661       O669   2.388       .  S
Zr661       O670   2.380       .  S
Zr661       O671   2.428       .  S
Zr661       O672   2.409       .  S
O662        H718   0.990       .  S
O662        H726   0.990       .  S
O663        C683   1.285       .  A
O664        C685   1.281       .  A
O665       Zr675   2.404       .  S
O665        C684   1.271       .  A
O666       Zr674   2.488   1_556  S
O666        C685   1.297       .  A
O667        C684   1.285       .  A
O668       Zr676   2.399       .  S
O668        C683   1.273       .  A
O669       Zr674   2.395   1_556  S
O669       Zr676   2.359       .  S
O670       Zr675   2.402       .  S
O670       Zr676   2.374       .  S
O670        H705   0.964       .  S
O671       Zr674   2.410   1_556  S
O671       Zr691   2.415   1_556  S
O671        H708   0.966       .  S
O672       Zr675   2.392       .  S
O672       Zr691   2.406   1_556  S
Zr673       O698   2.443       .  S
Zr673       O692   2.460       .  S
Zr673       O700   2.424       .  S
Zr673       O688   2.427       .  S
Zr673       O679   2.405   1_554  S
Zr673       O680   2.424       .  S
Zr673       O681   2.386       .  S
Zr673       O682   2.390       .  S
Zr674       O693   2.433       .  S
Zr674       O686   2.434       .  S
Zr674       O687   2.486       .  S
Zr674       O680   2.407       .  S
Zr674       O681   2.414       .  S
Zr675       O677   2.437   1_565  S
Zr675       O699   2.440       .  S
Zr675       O701   2.436   1_556  S
Zr675       O679   2.386       .  S
Zr675       O682   2.377   1_556  S
Zr676       O702   2.438       .  S
Zr676       O703   2.431       .  S
Zr676       O678   2.439       .  S
Zr676       O679   2.371       .  S
Zr676       O680   2.374   1_556  S
O677        H714   0.990       .  S
O678        H709   0.990       .  S
O678        H723   0.990       .  S
O680        H706   0.962       .  S
O681       Zr691   2.390       .  S
O682       Zr691   2.381       .  S
O682        H707   0.964       .  S
C683       C2896   1.498       .  S
C684       C2800   1.474       .  S
C685       C2788   1.496       .  S
O686        H722   0.990   1_554  S
O687        C689   1.294       .  A
O688        C689   1.282       .  A
C689       C2881   1.481       .  S
O690       Zr691   2.440   1_556  S
O690        H719   0.990   1_556  S
Zr691       O694   2.437       .  S
Zr691       O695   2.437       .  S
Zr691       O696   2.454       .  S
O692        C697   1.287       .  A
O693        H710   0.990       .  S
O693        H725   0.990       .  S
O694        H711   0.990       .  S
O695        H715   0.990       .  S
O695        H724   0.990       .  S
O696        C697   1.286       .  A
C697       C2809   1.489       .  S
O698        H717   0.991       .  S
O698        H721   0.990       .  S
O699        H713   0.990   1_565  S
O699        H720   0.987       .  S
O700        C704   1.276       .  A
O701        C704   1.277       .  A
O702        H712   0.990       .  S
O703        H716   0.990   1_556  S
C704       C2857   1.484       .  S
Zr727       O728   2.447       .  S
Zr727       O729   2.417       .  S
Zr727       O730   2.415       .  S
Zr727       O733   2.415       .  S
Zr727       O735   2.388       .  S
Zr727       O736   2.385       .  S
Zr727       O737   2.422       .  S
Zr727       O738   2.394       .  S
O728        H784   0.987       .  S
O728        H792   0.990       .  S
O729        C749   1.276       .  A
O730        C751   1.272       .  A
O731       Zr741   2.495       .  S
O731        C750   1.293       .  A
O732       Zr740   2.431       .  S
O732        C751   1.275       .  A
O733        C750   1.276       .  A
O734       Zr742   2.466       .  S
O734        C749   1.288       .  A
O735       Zr740   2.380       .  S
O735       Zr742   2.357       .  S
O736       Zr741   2.397       .  S
O736       Zr742   2.387       .  S
O736        H771   0.966       .  S
O737       Zr740   2.396       .  S
O737       Zr757   2.368       .  S
O737        H774   0.955       .  S
O738       Zr741   2.365       .  S
O738       Zr757   2.362       .  S
Zr739       O764   2.439       .  S
Zr739       O758   2.474       .  S
Zr739       O766   2.431       .  S
Zr739       O754   2.519       .  S
Zr739       O745   2.434       .  S
Zr739       O746   2.410       .  S
Zr739       O747   2.370       .  S
Zr739       O748   2.408       .  S
Zr740       O759   2.427       .  S
Zr740       O752   2.431   1_455  S
Zr740       O753   2.400       .  S
Zr740       O746   2.402       .  S
Zr740       O747   2.379       .  S
Zr741       O743   2.435       .  S
Zr741       O765   2.438       .  S
Zr741       O767   2.437       .  S
Zr741       O745   2.412       .  S
Zr741       O748   2.409       .  S
Zr742       O768   2.436       .  S
Zr742       O769   2.435       .  S
Zr742       O744   2.436       .  S
Zr742       O745   2.416       .  S
Zr742       O746   2.408       .  S
O743        H780   0.990       .  S
O744        H775   0.990       .  S
O744        H789   0.990       .  S
O746        H772   0.964       .  S
O747       Zr757   2.388       .  S
O748       Zr757   2.363       .  S
O748        H773   0.966       .  S
C749       C2836   1.495       .  S
C750       C2812   1.487       .  S
C751       C2908   1.473       .  S
O752        H788   0.990       .  S
O753        C755   1.279       .  A
O754        C755   1.298       .  A
C755       C2845   1.522       .  S
O756       Zr757   2.438   1_565  S
O756        H785   0.990       .  S
Zr757       O760   2.433   1_545  S
Zr757       O761   2.440       .  S
Zr757       O762   2.375       .  S
O758        C763   1.291       .  A
O759        H776   0.989       .  S
O759        H791   0.985       .  S
O760        H777   0.990       .  S
O761        H781   0.990       .  S
O761        H790   0.990       .  S
O762        C763   1.273       .  A
C763       C2797   1.468       .  S
O764        H783   0.990       .  S
O764        H787   0.990       .  S
O765        H779   0.990       .  S
O765        H786   0.990       .  S
O766        C770   1.287       .  A
O767        C770   1.284       .  A
O768        H778   0.990       .  S
O769        H782   0.990       .  S
C770       C3145   1.495       .  S
Zr793       O794   2.438       .  S
Zr793       O795   2.457       .  S
Zr793       O796   2.407       .  S
Zr793       O799   2.502       .  S
Zr793       O801   2.407       .  S
Zr793       O802   2.381       .  S
Zr793       O803   2.442       .  S
Zr793       O804   2.397       .  S
O794        H850   0.990       .  S
O794        H858   0.990       .  S
O795        C815   1.281       .  A
O796        C817   1.283       .  A
O797       Zr807   2.407       .  S
O797        C816   1.276       .  A
O798       Zr806   2.483       .  S
O798        C817   1.295       .  A
O799        C816   1.293       .  A
O800       Zr808   2.393       .  S
O800        C815   1.266       .  A
O801       Zr806   2.408       .  S
O801       Zr808   2.362       .  S
O802       Zr807   2.388       .  S
O802       Zr808   2.391       .  S
O802        H837   0.963       .  S
O803       Zr806   2.428       .  S
O803       Zr823   2.409       .  S
O803        H840   0.966       .  S
O804       Zr807   2.394       .  S
O804       Zr823   2.412       .  S
Zr805       O830   2.425       .  S
Zr805       O824   2.444       .  S
Zr805       O832   2.417       .  S
Zr805       O820   2.422       .  S
Zr805       O811   2.404       .  S
Zr805       O812   2.412       .  S
Zr805       O813   2.383       .  S
Zr805       O814   2.401       .  S
Zr806       O825   2.433       .  S
Zr806       O818   2.434       .  S
Zr806       O819   2.537       .  S
Zr806       O812   2.393       .  S
Zr806       O813   2.393       .  S
Zr807       O809   2.439       .  S
Zr807       O831   2.442       .  S
Zr807       O833   2.434       .  S
Zr807       O811   2.380       .  S
Zr807       O814   2.371       .  S
Zr808       O834   2.434       .  S
Zr808       O835   2.441       .  S
Zr808       O810   2.437       .  S
Zr808       O811   2.369       .  S
Zr808       O812   2.379       .  S
O809        H846   0.990       .  S
O810        H841   0.990       .  S
O810        H855   0.990       .  S
O812        H838   0.963       .  S
O813       Zr823   2.378       .  S
O814       Zr823   2.361       .  S
O814        H839   0.962       .  S
C815       C2761   1.478       .  S
C816       C2737   1.517       .  S
C817       C2980   1.497       .  S
O818        H854   0.990       .  S
O819        C821   1.301       .  A
O820        C821   1.281       .  A
C821       C2776   1.526       .  S
O822       Zr823   2.440       .  S
O822        H851   0.990       .  S
Zr823       O826   2.436       .  S
Zr823       O827   2.437       .  S
Zr823       O828   2.472       .  S
O824        C829   1.290       .  A
O825        H842   0.990       .  S
O825        H857   0.990       .  S
O826        H843   0.990       .  S
O827        H847   0.990       .  S
O827        H856   0.990       .  S
O828        C829   1.292       .  A
C829       C2749   1.491       .  S
O830        H849   0.986       .  S
O830        H853   0.984       .  S
O831        H845   0.990       .  S
O831        H852   0.990       .  S
O832        C836   1.272       .  A
O833        C836   1.272       .  A
O834        H844   0.990       .  S
O835        H848   0.990       .  S
C836       C2725   1.480       .  S
Zr859       O860   2.440       .  S
Zr859       O861   2.469       .  S
Zr859       O862   2.413       .  S
Zr859       O865   2.481       .  S
Zr859       O867   2.416       .  S
Zr859       O868   2.394       .  S
Zr859       O869   2.446       .  S
Zr859       O870   2.418       .  S
O860        H916   0.990       .  S
O860        H924   0.990       .  S
O861        C881   1.286       .  A
O862        C883   1.275       .  A
O863       Zr873   2.403       .  S
O863        C882   1.279       .  A
O864       Zr872   2.474       .  S
O864        C883   1.291       .  A
O865        C882   1.293       .  A
O866       Zr874   2.389       .  S
O866        C881   1.267       .  A
O867       Zr872   2.426       .  S
O867       Zr874   2.361       .  S
O868       Zr873   2.367       .  S
O868       Zr874   2.394       .  S
O868        H903   0.965       .  S
O869       Zr872   2.443       .  S
O869       Zr889   2.408       .  S
O869        H906   0.964       .  S
O870       Zr873   2.360       .  S
O870       Zr889   2.427       .  S
Zr871       O896   2.444       .  S
Zr871       O890   2.408       .  S
Zr871       O898   2.398       .  S
Zr871       O886   2.407       .  S
Zr871       O877   2.349       .  S
Zr871       O878   2.402       .  S
Zr871       O879   2.361       .  S
Zr871       O880   2.390       .  S
Zr872       O891   2.434       .  S
Zr872       O884   2.434       .  S
Zr872       O885   2.525       .  S
Zr872       O878   2.430       .  S
Zr872       O879   2.422       .  S
Zr873       O875   2.433       .  S
Zr873       O897   2.441       .  S
Zr873       O899   2.363       .  S
Zr873       O877   2.344       .  S
Zr873       O880   2.365       .  S
Zr874       O900   2.435       .  S
Zr874       O901   2.433       .  S
Zr874       O876   2.439       .  S
Zr874       O877   2.357       .  S
Zr874       O878   2.376       .  S
O875        H912   0.990       .  S
O876        H907   0.990       .  S
O876        H921   0.990       .  S
O878        H904   0.964       .  S
O879       Zr889   2.399       .  S
O880       Zr889   2.381       .  S
O880        H905   0.965       .  S
C881       C2764   1.465       .  S
C882       C2692   1.493       .  S
C883       C2824   1.488       .  S
O884        H920   0.990       .  S
O885        C887   1.293       .  A
O886        C887   1.270       .  A
C887       C2773   1.524       .  S
O888       Zr889   2.440       .  S
O888        H917   0.990       .  S
Zr889       O892   2.436       .  S
Zr889       O893   2.438       .  S
Zr889       O894   2.466       .  S
O890        C895   1.280       .  A
O891        H908   0.990       .  S
O891        H923   0.990       .  S
O892        H909   0.990       .  S
O893        H913   0.990       .  S
O893        H922   0.990       .  S
O894        C895   1.289       .  A
C895       C2704   1.475       .  S
O896        H915   0.984       .  S
O896        H919   0.988       .  S
O897        H911   0.990       .  S
O897        H918   0.990       .  S
O898        C902   1.273       .  A
O899        C902   1.273       .  A
O900        H910   0.991       .  S
O901        H914   0.990       .  S
C902       C2713   1.437       .  S
Zr925       O926   2.439       .  S
Zr925       O927   2.460       .  S
Zr925       O928   2.385       .  S
Zr925       O931   2.453       .  S
Zr925       O933   2.393       .  S
Zr925       O934   2.371       .  S
Zr925       O935   2.430       .  S
Zr925       O936   2.406       .  S
O926        H982   0.990       .  S
O926        H990   0.990       .  S
O927        C947   1.285       .  A
O928        C949   1.275       .  A
O929       Zr939   2.407       .  S
O929        C948   1.273       .  A
O930       Zr938   2.495       .  S
O930        C949   1.297       .  A
O931        C948   1.286       .  A
O932       Zr940   2.401       .  S
O932        C947   1.270       .  A
O933       Zr938   2.397       .  S
O933       Zr940   2.359       .  S
O934       Zr939   2.389       .  S
O934       Zr940   2.383       .  S
O934        H969   0.965       .  S
O935       Zr938   2.415       .  S
O935       Zr955   2.396       .  S
O935        H972   0.965       .  S
O936       Zr939   2.386       .  S
O936       Zr955   2.416       .  S
Zr937       O962   2.445       .  S
Zr937       O956   2.451       .  S
Zr937       O964   2.437       .  S
Zr937       O952   2.444       .  S
Zr937       O943   2.416       .  S
Zr937       O944   2.424       .  S
Zr937       O945   2.394       .  S
Zr937       O946   2.406       .  S
Zr938       O957   2.434       .  S
Zr938       O950   2.435       .  S
Zr938       O951   2.500       .  S
Zr938       O944   2.408       .  S
Zr938       O945   2.418       .  S
Zr939       O941   2.435       .  S
Zr939       O963   2.439       .  S
Zr939       O965   2.409       .  S
Zr939       O943   2.404       .  S
Zr939       O946   2.387       .  S
Zr940       O966   2.432       .  S
Zr940       O967   2.432       .  S
Zr940       O942   2.438       .  S
Zr940       O943   2.384       .  S
Zr940       O944   2.368       .  S
O941        H978   0.990       .  S
O942        H973   0.990       .  S
O942        H987   0.990       .  S
O944        H970   0.962       .  S
O945       Zr955   2.391       .  S
O946       Zr955   2.363       .  S
O946        H971   0.963       .  S
C947       C2752   1.484       .  S
C948       C2677   1.485       .  S
C949       C2653   1.479       .  S
O950        H986   0.990       .  S
O951        C953   1.297       .  A
O952        C953   1.284       .  A
C953       C2740   1.494   1_554  S
O954       Zr955   2.440       .  S
O954        H983   0.990       .  S
Zr955       O958   2.437       .  S
Zr955       O959   2.438       .  S
Zr955       O960   2.452       .  S
O956        C961   1.285       .  A
O957        H974   0.990       .  S
O957        H989   0.990       .  S
O958        H975   0.990       .  S
O959        H979   0.990       .  S
O959        H988   0.990       .  S
O960        C961   1.286       .  A
C961       C2665   1.481       .  S
O962        H981   0.990   1_554  S
O962        H985   0.991       .  S
O963        H977   0.989       .  S
O963        H984   0.988       .  S
O964        C968   1.277       .  A
O965        C968   1.262       .  A
O966        H976   0.990       .  S
O967        H980   0.990       .  S
C968       C2716   1.465       .  S
Zr991       O992   2.442       .  S
Zr991       O993   2.428       .  S
Zr991       O994   2.422       .  S
Zr991       O997   2.426       .  S
Zr991       O999   2.383       .  S
Zr991      O1000   2.394       .  S
Zr991      O1001   2.433       .  S
Zr991      O1002   2.395       .  S
O992       H1048   0.990       .  S
O992       H1056   0.990       .  S
O993       C1013   1.282       .  A
O994       C1015   1.271       .  A
O995      Zr1005   2.484       .  S
O995       C1014   1.292       .  A
O996      Zr1004   2.418       .  S
O996       C1015   1.271       .  A
O997       C1014   1.279       .  A
O998      Zr1006   2.471       .  S
O998       C1013   1.288       .  A
O999      Zr1004   2.382       .  S
O999      Zr1006   2.346       .  S
O1000     Zr1005   2.416       .  S
O1000     Zr1006   2.387       .  S
O1000      H1035   0.966       .  S
O1001     Zr1004   2.412       .  S
O1001     Zr1021   2.386       .  S
O1001      H1038   0.963       .  S
O1002     Zr1005   2.373       .  S
O1002     Zr1021   2.358       .  S
Zr1003     O1028   2.444       .  S
Zr1003     O1022   2.485       .  S
Zr1003     O1030   2.410       .  S
Zr1003     O1018   2.465       .  S
Zr1003     O1009   2.425       .  S
Zr1003     O1010   2.407       .  S
Zr1003     O1011   2.354       .  S
Zr1003     O1012   2.398       .  S
Zr1004     O1023   2.425       .  S
Zr1004     O1016   2.429       .  S
Zr1004     O1017   2.404       .  S
Zr1004     O1010   2.389       .  S
Zr1004     O1011   2.371       .  S
Zr1005     O1007   2.435       .  S
Zr1005     O1029   2.436       .  S
Zr1005     O1031   2.462       .  S
Zr1005     O1009   2.395       .  S
Zr1005     O1012   2.411       .  S
Zr1006     O1032   2.436       .  S
Zr1006     O1033   2.435       .  S
Zr1006     O1008   2.437       .  S
Zr1006     O1009   2.407       .  S
Zr1006     O1010   2.406       .  S
O1007      H1044   0.990       .  S
O1008      H1039   0.990       .  S
O1008      H1053   0.990       .  S
O1010      H1036   0.964       .  S
O1011     Zr1021   2.384       .  S
O1012     Zr1021   2.387       .  S
O1012      H1037   0.966       .  S
C1013      C2689   1.488       .  S
C1014      C2668   1.489       .  S
C1015      C2728   1.478       .  S
O1016      H1052   0.990       .  S
O1017      C1019   1.278       .  A
O1018      C1019   1.289       .  A
C1019      C2701   1.471       .  S
O1020     Zr1021   2.437       .  S
O1020      H1049   0.990       .  S
Zr1021     O1024   2.437       .  S
Zr1021     O1025   2.441       .  S
Zr1021     O1026   2.386       .  S
O1022      C1027   1.292       .  A
O1023      H1040   0.986       .  S
O1023      H1055   0.983       .  S
O1024      H1041   0.990       .  S
O1025      H1045   0.990       .  S
O1025      H1054   0.990       .  S
O1026      C1027   1.275       .  A
C1027      C2680   1.484       .  S
O1028      H1047   0.991       .  S
O1028      H1051   0.991       .  S
O1029      H1043   0.990       .  S
O1029      H1050   0.990       .  S
O1030      C1034   1.278       .  A
O1031      C1034   1.291       .  A
O1032      H1042   0.990       .  S
O1033      H1046   0.990       .  S
C1034      C2641   1.484       .  S
Zr1057     O1058   2.442       .  S
Zr1057     O1059   2.461       .  S
Zr1057     O1060   2.445       .  S
Zr1057     O1063   2.422       .  S
Zr1057     O1065   2.382       .  S
Zr1057     O1066   2.399       .  S
Zr1057     O1067   2.432       .  S
Zr1057     O1068   2.418       .  S
O1058      H1114   0.990       .  S
O1058      H1122   0.991       .  S
O1059      C1079   1.288       .  A
O1060      C1081   1.278       .  A
O1061     Zr1071   2.508       .  S
O1061      C1080   1.296       .  A
O1062     Zr1070   2.415   1_554  S
O1062      C1081   1.269       .  A
O1063      C1080   1.277       .  A
O1064     Zr1072   2.442       .  S
O1064      C1079   1.284       .  A
O1065     Zr1070   2.388   1_554  S
O1065     Zr1072   2.366       .  S
O1066     Zr1071   2.419       .  S
O1066     Zr1072   2.388       .  S
O1066      H1101   0.966       .  S
O1067     Zr1070   2.397   1_554  S
O1067     Zr1087   2.382   1_554  S
O1067      H1104   0.954       .  S
O1068     Zr1071   2.375       .  S
O1068     Zr1087   2.371   1_554  S
Zr1069     O1094   2.439       .  S
Zr1069     O1088   2.462       .  S
Zr1069     O1096   2.388       .  S
Zr1069     O1084   2.478       .  S
Zr1069     O1075   2.419       .  S
Zr1069     O1076   2.403       .  S
Zr1069     O1077   2.354       .  S
Zr1069     O1078   2.400       .  S
Zr1070     O1089   2.421       .  S
Zr1070     O1082   2.431       .  S
Zr1070     O1083   2.379       .  S
Zr1070     O1076   2.392       .  S
Zr1070     O1077   2.385       .  S
Zr1071     O1073   2.436       .  S
Zr1071     O1095   2.436       .  S
Zr1071     O1097   2.490   1_554  S
Zr1071     O1075   2.400   1_554  S
Zr1071     O1078   2.405   1_554  S
Zr1072     O1098   2.437       .  S
Zr1072     O1099   2.435   1_554  S
Zr1072     O1074   2.436   1_554  S
Zr1072     O1075   2.395   1_554  S
Zr1072     O1076   2.408   1_554  S
O1073      H1110   0.990       .  S
O1074      H1105   0.990   1_556  S
O1074      H1119   0.990       .  S
O1076      H1102   0.965       .  S
O1077     Zr1087   2.383       .  S
O1078     Zr1087   2.370       .  S
O1078      H1103   0.966       .  S
C1079      C2617   1.492       .  S
C1080      C2593   1.490       .  S
C1081      C2605   1.482       .  S
O1082      H1118   0.990       .  S
O1083      C1085   1.274       .  A
O1084      C1085   1.290       .  A
C1085      C2632   1.470       .  S
O1086     Zr1087   2.440   1_554  S
O1086      H1115   0.990   1_554  S
Zr1087     O1090   2.437       .  S
Zr1087     O1091   2.437       .  S
Zr1087     O1092   2.408       .  S
O1088      C1093   1.288       .  A
O1089      H1106   0.987       .  S
O1089      H1121   0.984       .  S
O1090      H1107   0.990       .  S
O1091      H1111   0.990       .  S
O1091      H1120   0.990       .  S
O1092      C1093   1.275       .  A
C1093      C2581   1.477       .  S
O1094      H1113   0.990       .  S
O1094      H1117   0.990       .  S
O1095      H1109   0.990       .  S
O1095      H1116   0.990       .  S
O1096      C1100   1.278       .  A
O1097      C1100   1.296       .  A
O1098      H1108   0.990       .  S
O1099      H1112   0.990       .  S
C1100      C3112   1.496       .  S
Zr1123     O1124   2.441       .  S
Zr1123     O1125   2.453       .  S
Zr1123     O1126   2.414       .  S
Zr1123     O1129   2.508       .  S
Zr1123     O1131   2.410       .  S
Zr1123     O1132   2.372       .  S
Zr1123     O1133   2.434       .  S
Zr1123     O1134   2.395       .  S
O1124      H1180   0.991       .  S
O1124      H1188   0.990       .  S
O1125      C1145   1.284       .  A
O1126      C1147   1.281       .  A
O1127     Zr1137   2.395       .  S
O1127      C1146   1.277       .  A
O1128     Zr1136   2.447       .  S
O1128      C1147   1.289       .  A
O1129      C1146   1.297       .  A
O1130     Zr1138   2.404       .  S
O1130      C1145   1.270       .  A
O1131     Zr1136   2.406       .  S
O1131     Zr1138   2.365       .  S
O1132     Zr1137   2.383       .  S
O1132     Zr1138   2.384       .  S
O1132      H1167   0.964       .  S
O1133     Zr1136   2.425       .  S
O1133     Zr1153   2.396       .  S
O1133      H1170   0.965       .  S
O1134     Zr1137   2.393       .  S
O1134     Zr1153   2.412       .  S
Zr1135     O1160   2.444       .  S
Zr1135     O1154   2.430       .  S
Zr1135     O1162   2.414       .  S
Zr1135     O1150   2.422       .  S
Zr1135     O1141   2.426       .  S
Zr1135     O1142   2.416       .  S
Zr1135     O1143   2.385       .  S
Zr1135     O1144   2.401       .  S
Zr1136     O1155   2.433       .  S
Zr1136     O1148   2.435       .  S
Zr1136     O1149   2.488       .  S
Zr1136     O1142   2.408       .  S
Zr1136     O1143   2.401       .  S
Zr1137     O1139   2.435       .  S
Zr1137     O1161   2.430       .  S
Zr1137     O1163   2.432       .  S
Zr1137     O1141   2.394       .  S
Zr1137     O1144   2.361       .  S
Zr1138     O1164   2.440       .  S
Zr1138     O1165   2.438       .  S
Zr1138     O1140   2.437       .  S
Zr1138     O1141   2.389       .  S
Zr1138     O1142   2.375       .  S
O1139      H1176   0.987       .  S
O1140      H1171   0.990       .  S
O1140      H1185   0.990       .  S
O1142      H1168   0.962       .  S
O1143     Zr1153   2.386       .  S
O1144     Zr1153   2.361       .  S
O1144      H1169   0.963       .  S
C1145      C2629   1.474       .  S
C1146      C2545   1.509       .  S
C1147      C2533   1.471       .  S
O1148      H1184   0.990       .  S
O1149      C1151   1.291       .  A
O1150      C1151   1.275       .  A
C1151      C2620   1.491       .  S
O1152     Zr1153   2.439       .  S
O1152      H1181   0.990       .  S
Zr1153     O1156   2.436       .  S
Zr1153     O1157   2.437       .  S
Zr1153     O1158   2.455       .  S
O1154      C1159   1.285       .  A
O1155      H1172   0.990       .  S
O1155      H1187   0.990       .  S
O1156      H1173   0.990       .  S
O1157      H1177   0.990       .  S
O1157      H1186   0.990       .  S
O1158      C1159   1.287       .  A
C1159      C2557   1.472       .  S
O1160      H1179   0.990       .  S
O1160      H1183   0.990       .  S
O1161      H1175   0.987       .  S
O1161      H1182   0.989       .  S
O1162      C1166   1.268       .  A
O1163      C1166   1.269       .  A
O1164      H1174   0.990       .  S
O1165      H1178   0.989       .  S
C1166      C2569   1.468       .  S
Zr1189     O1190   2.445       .  S
Zr1189     O1191   2.416       .  S
Zr1189     O1192   2.412       .  S
Zr1189     O1195   2.405       .  S
Zr1189     O1197   2.389       .  S
Zr1189     O1198   2.388       .  S
Zr1189     O1199   2.426       .  S
Zr1189     O1200   2.408       .  S
O1190      H1246   0.990       .  S
O1190      H1254   0.989       .  S
O1191      C1211   1.279       .  A
O1192      C1213   1.269       .  A
O1193     Zr1203   2.519       .  S
O1193      C1212   1.297       .  A
O1194     Zr1202   2.416       .  S
O1194      C1213   1.270       .  A
O1195      C1212   1.272       .  A
O1196     Zr1204   2.470       .  S
O1196      C1211   1.289       .  A
O1197     Zr1202   2.397       .  S
O1197     Zr1204   2.357       .  S
O1198     Zr1203   2.408       .  S
O1198     Zr1204   2.380       .  S
O1198      H1233   0.966       .  S
O1199     Zr1202   2.412       .  S
O1199     Zr1219   2.367       .  S
O1199      H1236   0.956       .  S
O1200     Zr1203   2.385       .  S
O1200     Zr1219   2.374       .  S
Zr1201     O1226   2.439       .  S
Zr1201     O1220   2.486       .  S
Zr1201     O1228   2.389       .  S
Zr1201     O1216   2.505       .  S
Zr1201     O1207   2.437       .  S
Zr1201     O1208   2.405       .  S
Zr1201     O1209   2.354       .  S
Zr1201     O1210   2.406       .  S
Zr1202     O1221   2.430       .  S
Zr1202     O1214   2.433       .  S
Zr1202     O1215   2.413       .  S
Zr1202     O1208   2.397       .  S
Zr1202     O1209   2.384       .  S
Zr1203     O1205   2.435       .  S
Zr1203     O1227   2.435       .  S
Zr1203     O1229   2.482       .  S
Zr1203     O1207   2.413       .  S
Zr1203     O1210   2.401       .  S
Zr1204     O1230   2.437       .  S
Zr1204     O1231   2.435       .  S
Zr1204     O1206   2.436       .  S
Zr1204     O1207   2.409       .  S
Zr1204     O1208   2.409       .  S
O1205      H1242   0.990       .  S
O1206      H1237   0.990       .  S
O1206      H1251   0.990       .  S
O1208      H1234   0.963       .  S
O1209     Zr1219   2.396       .  S
O1210     Zr1219   2.374       .  S
O1210      H1235   0.966       .  S
C1211      C2584   1.495       .  S
C1212      C2509   1.500       .  S
C1213      C2572   1.472       .  S
O1214      H1250   0.990       .  S
O1215      C1217   1.281       .  A
O1216      C1217   1.295       .  A
C1217      C2596   1.509       .  S
O1218     Zr1219   2.439       .  S
O1218      H1247   0.990       .  S
Zr1219     O1222   2.439       .  S
Zr1219     O1223   2.437       .  S
Zr1219     O1224   2.373       .  S
O1220      C1225   1.289       .  A
O1221      H1238   0.988       .  S
O1221      H1253   0.985       .  S
O1222      H1239   0.990       .  S
O1223      H1243   0.990       .  S
O1223      H1252   0.990       .  S
O1224      C1225   1.265       .  A
C1225      C2524   1.494       .  S
O1226      H1245   0.990       .  S
O1226      H1249   0.990       .  S
O1227      H1241   0.990       .  S
O1227      H1248   0.990       .  S
O1228      C1232   1.277       .  A
O1229      C1232   1.295       .  A
O1230      H1240   0.990       .  S
O1231      H1244   0.990       .  S
C1232      C2656   1.476       .  S
Zr1255     O1256   2.440       .  S
Zr1255     O1257   2.455       .  S
Zr1255     O1258   2.395       .  S
Zr1255     O1261   2.475       .  S
Zr1255     O1263   2.395       .  S
Zr1255     O1264   2.367       .  S
Zr1255     O1265   2.428   1_554  S
Zr1255     O1266   2.397       .  S
O1256      H1312   0.990       .  S
O1256      H1320   0.990       .  S
O1257      C1277   1.287       .  A
O1258      C1279   1.277       .  A
O1259     Zr1269   2.387   1_554  S
O1259      C1278   1.271       .  A
O1260     Zr1268   2.474       .  S
O1260      C1279   1.293   1_556  A
O1261      C1278   1.288       .  A
O1262     Zr1270   2.394   1_554  S
O1262      C1277   1.275       .  A
O1263     Zr1268   2.400   1_554  S
O1263     Zr1270   2.361   1_554  S
O1264     Zr1269   2.396   1_554  S
O1264     Zr1270   2.382   1_554  S
O1264      H1299   0.965       .  S
O1265     Zr1268   2.417       .  S
O1265     Zr1285   2.407       .  S
O1265      H1302   0.965       .  S
O1266     Zr1269   2.384   1_554  S
O1266     Zr1285   2.406   1_554  S
Zr1267     O1292   2.436       .  S
Zr1267     O1286   2.474       .  S
Zr1267     O1294   2.450       .  S
Zr1267     O1282   2.434       .  S
Zr1267     O1273   2.412       .  S
Zr1267     O1274   2.434       .  S
Zr1267     O1275   2.392       .  S
Zr1267     O1276   2.392       .  S
Zr1268     O1287   2.433       .  S
Zr1268     O1280   2.436       .  S
Zr1268     O1281   2.473       .  S
Zr1268     O1274   2.425       .  S
Zr1268     O1275   2.420       .  S
Zr1269     O1271   2.434       .  S
Zr1269     O1293   2.438   1_556  S
Zr1269     O1295   2.414       .  S
Zr1269     O1273   2.387       .  S
Zr1269     O1276   2.379       .  S
Zr1270     O1296   2.432   1_556  S
Zr1270     O1297   2.434       .  S
Zr1270     O1272   2.438       .  S
Zr1270     O1273   2.371       .  S
Zr1270     O1274   2.371       .  S
O1271      H1308   0.988   1_556  S
O1272      H1303   0.990       .  S
O1272      H1317   0.990       .  S
O1274      H1300   0.964       .  S
O1275     Zr1285   2.377       .  S
O1276     Zr1285   2.369       .  S
O1276      H1301   0.961       .  S
C1277      C2560   1.482       .  S
C1278      C2521   1.478       .  S
C1279      C2497   1.469       .  S
O1280      H1316   0.990       .  S
O1281      C1283   1.283       .  A
O1282      C1283   1.277       .  A
C1283      C2548   1.504       .  S
O1284     Zr1285   2.439       .  S
O1284      H1313   0.990       .  S
Zr1285     O1288   2.437       .  S
Zr1285     O1289   2.436       .  S
Zr1285     O1290   2.462       .  S
O1286      C1291   1.292       .  A
O1287      H1304   0.990       .  S
O1287      H1319   0.990       .  S
O1288      H1305   0.990       .  S
O1289      H1309   0.990       .  S
O1289      H1318   0.990       .  S
O1290      C1291   1.289       .  A
C1291      C2512   1.495       .  S
O1292      H1311   0.990       .  S
O1292      H1315   0.990       .  S
O1293      H1307   0.989       .  S
O1293      H1314   0.989       .  S
O1294      C1298   1.279       .  A
O1295      C1298   1.266       .  A
O1296      H1306   0.990       .  S
O1297      H1310   0.990       .  S
C1298      C2608   1.479       .  S
Zr1321     O1322   2.442       .  S
Zr1321     O1323   2.459       .  S
Zr1321     O1324   2.405       .  S
Zr1321     O1327   2.500       .  S
Zr1321     O1329   2.415       .  S
Zr1321     O1330   2.375       .  S
Zr1321     O1331   2.439       .  S
Zr1321     O1332   2.385       .  S
O1322      H1378   0.990       .  S
O1322      H1386   0.990       .  S
O1323      C1343   1.281       .  A
O1324      C1345   1.281       .  A
O1325     Zr1335   2.383       .  S
O1325      C1344   1.274       .  A
O1326     Zr1334   2.489       .  S
O1326      C1345   1.295       .  A
O1327      C1344   1.296       .  A
O1328     Zr1336   2.399       .  S
O1328      C1343   1.268       .  A
O1329     Zr1334   2.414       .  S
O1329     Zr1336   2.370       .  S
O1330     Zr1335   2.358       .  S
O1330     Zr1336   2.396       .  S
O1330      H1365   0.959       .  S
O1331     Zr1334   2.430       .  S
O1331     Zr1351   2.397       .  S
O1331      H1368   0.966       .  S
O1332     Zr1335   2.386       .  S
O1332     Zr1351   2.415       .  S
Zr1333     O1358   2.448       .  S
Zr1333     O1352   2.437       .  S
Zr1333     O1360   2.475       .  S
Zr1333     O1348   2.419       .  S
Zr1333     O1339   2.443       .  S
Zr1333     O1340   2.422       .  S
Zr1333     O1341   2.398       .  S
Zr1333     O1342   2.456       .  S
Zr1334     O1353   2.434       .  S
Zr1334     O1346   2.435       .  S
Zr1334     O1347   2.527       .  S
Zr1334     O1340   2.414       .  S
Zr1334     O1341   2.409       .  S
Zr1335     O1337   2.434       .  S
Zr1335     O1359   2.435       .  S
Zr1335     O1361   2.337       .  S
Zr1335     O1339   2.395       .  S
Zr1335     O1342   2.392       .  S
Zr1336     O1362   2.434       .  S
Zr1336     O1363   2.435       .  S
Zr1336     O1338   2.437       .  S
Zr1336     O1339   2.379       .  S
Zr1336     O1340   2.378       .  S
O1337      H1374   0.990       .  S
O1338      H1369   0.990       .  S
O1338      H1383   0.990       .  S
O1340      H1366   0.964       .  S
O1341     Zr1351   2.386       .  S
O1342     Zr1351   2.361       .  S
O1342      H1367   0.970       .  S
C1343      C2485   1.477       .  S
C1344      C2449   1.496       .  S
C1345      C3028   1.509       .  S
O1346      H1382   0.990       .  S
O1347      C1349   1.294       .  A
O1348      C1349   1.273       .  A
C1349      C2473   1.529       .  S
O1350     Zr1351   2.439       .  S
O1350      H1379   0.990       .  S
Zr1351     O1354   2.436       .  S
Zr1351     O1355   2.439       .  S
Zr1351     O1356   2.456       .  S
O1352      C1357   1.287       .  A
O1353      H1370   0.990       .  S
O1353      H1385   0.990       .  S
O1354      H1371   0.990       .  S
O1355      H1375   0.990       .  S
O1355      H1384   0.990       .  S
O1356      C1357   1.288       .  A
C1357      C2461   1.480       .  S
O1358      H1377   0.988       .  S
O1358      H1381   0.988       .  S
O1359      H1373   0.988       .  S
O1359      H1380   0.989       .  S
O1360      C1364   1.259       .  A
O1361      C1364   1.246       .  A
O1362      H1372   0.990       .  S
O1363      H1376   0.990       .  S
C1364      C2437   1.450       .  S
Zr1387     O1388   2.441       .  S
Zr1387     O1389   2.454       .  S
Zr1387     O1390   2.413       .  S
Zr1387     O1393   2.520       .  S
Zr1387     O1395   2.412       .  S
Zr1387     O1396   2.391       .  S
Zr1387     O1397   2.445       .  S
Zr1387     O1398   2.393       .  S
O1388      H1444   0.990       .  S
O1388      H1452   0.990       .  S
O1389      C1409   1.281       .  A
O1390      C1411   1.282       .  A
O1391     Zr1401   2.404       .  S
O1391      C1410   1.275       .  A
O1392     Zr1400   2.468       .  S
O1392      C1411   1.292       .  A
O1393      C1410   1.295       .  A
O1394     Zr1402   2.403       .  S
O1394      C1409   1.266       .  A
O1395     Zr1400   2.414       .  S
O1395     Zr1402   2.365       .  S
O1396     Zr1401   2.402       .  S
O1396     Zr1402   2.391       .  S
O1396      H1431   0.964       .  S
O1397     Zr1400   2.434       .  S
O1397     Zr1417   2.394       .  S
O1397      H1434   0.965       .  S
O1398     Zr1401   2.393       .  S
O1398     Zr1417   2.406       .  S
Zr1399     O1424   2.427       .  S
Zr1399     O1418   2.434       .  S
Zr1399     O1426   2.405       .  S
Zr1399     O1414   2.425       .  S
Zr1399     O1405   2.406       .  S
Zr1399     O1406   2.401       .  S
Zr1399     O1407   2.380       .  S
Zr1399     O1408   2.390       .  S
Zr1400     O1419   2.434       .  S
Zr1400     O1412   2.434       .  S
Zr1400     O1413   2.544       .  S
Zr1400     O1406   2.386       .  S
Zr1400     O1407   2.394       .  S
Zr1401     O1403   2.445       .  S
Zr1401     O1425   2.460       .  S
Zr1401     O1427   2.447       .  S
Zr1401     O1405   2.393       .  S
Zr1401     O1408   2.375       .  S
Zr1402     O1428   2.430       .  S
Zr1402     O1429   2.442       .  S
Zr1402     O1404   2.439       .  S
Zr1402     O1405   2.375       .  S
Zr1402     O1406   2.368       .  S
O1403      H1440   0.990       .  S
O1404      H1435   0.990       .  S
O1404      H1449   0.990       .  S
O1406      H1432   0.963       .  S
O1407     Zr1417   2.382       .  S
O1408     Zr1417   2.359       .  S
O1408      H1433   0.960       .  S
C1409      C2488   1.464       .  S
C1410      C2404   1.519       .  S
C1411      C2872   1.472       .  S
O1412      H1448   0.990       .  S
O1413      C1415   1.304       .  A
O1414      C1415   1.284       .  A
C1415      C2476   1.528       .  S
O1416     Zr1417   2.439       .  S
O1416      H1445   0.990       .  S
Zr1417     O1420   2.436       .  S
Zr1417     O1421   2.437       .  S
Zr1417     O1422   2.455       .  S
O1418      C1423   1.288       .  A
O1419      H1436   0.990       .  S
O1419      H1451   0.990       .  S
O1420      H1437   0.990       .  S
O1421      H1441   0.990       .  S
O1421      H1450   0.990       .  S
O1422      C1423   1.288       .  A
C1423      C2413   1.474       .  S
O1424      H1443   0.986       .  S
O1424      H1447   0.986       .  S
O1425      H1439   0.989       .  S
O1425      H1446   0.990       .  S
O1426      C1430   1.272       .  A
O1427      C1430   1.276       .  A
O1428      H1438   0.990       .  S
O1429      H1442   0.990       .  S
C1430      C2425   1.478       .  S
Zr1453     O1454   2.441       .  S
Zr1453     O1455   2.440       .  S
Zr1453     O1456   2.428       .  S
Zr1453     O1459   2.444       .  S
Zr1453     O1461   2.376       .  S
Zr1453     O1462   2.397       .  S
Zr1453     O1463   2.431       .  S
Zr1453     O1464   2.398       .  S
O1454      H1510   0.990       .  S
O1454      H1518   0.991       .  S
O1455      C1475   1.283       .  A
O1456      C1477   1.281       .  A
O1457     Zr1467   2.467       .  S
O1457      C1476   1.291       .  A
O1458     Zr1466   2.412       .  S
O1458      C1477   1.271       .  A
O1459      C1476   1.287       .  A
O1460     Zr1468   2.467       .  S
O1460      C1475   1.288       .  A
O1461     Zr1466   2.374       .  S
O1461     Zr1468   2.348       .  S
O1462     Zr1467   2.417       .  S
O1462     Zr1468   2.386       .  S
O1462      H1497   0.966       .  S
O1463     Zr1466   2.409       .  S
O1463     Zr1483   2.380       .  S
O1463      H1500   0.964       .  S
O1464     Zr1467   2.384       .  S
O1464     Zr1483   2.364       .  S
Zr1465     O1490   2.438       .  S
Zr1465     O1484   2.486       .  S
Zr1465     O1492   2.385       .  S
Zr1465     O1480   2.465       .  S
Zr1465     O1471   2.427       .  S
Zr1465     O1472   2.407       .  S
Zr1465     O1473   2.350       .  S
Zr1465     O1474   2.387       .  S
Zr1466     O1485   2.414       .  S
Zr1466     O1478   2.438       .  S
Zr1466     O1479   2.386       .  S
Zr1466     O1472   2.393       .  S
Zr1466     O1473   2.377       .  S
Zr1467     O1469   2.436       .  S
Zr1467     O1491   2.437       .  S
Zr1467     O1493   2.475       .  S
Zr1467     O1471   2.388       .  S
Zr1467     O1474   2.401       .  S
Zr1468     O1494   2.437       .  S
Zr1468     O1495   2.434       .  S
Zr1468     O1470   2.436       .  S
Zr1468     O1471   2.410       .  S
Zr1468     O1472   2.404       .  S
O1469      H1506   0.990       .  S
O1470      H1501   0.990       .  S
O1470      H1515   0.990       .  S
O1472      H1498   0.965       .  S
O1473     Zr1483   2.383       .  S
O1474     Zr1483   2.377       .  S
O1474      H1499   0.966       .  S
C1475      C2452   1.491       .  S
C1476      C2389   1.479       .  S
C1477      C2428   1.474       .  S
O1478      H1514   0.991       .  S
O1479      C1481   1.274       .  A
O1480      C1481   1.290       .  A
C1481      C2464   1.469       .  S
O1482     Zr1483   2.439       .  S
O1482      H1511   0.990       .  S
Zr1483     O1486   2.439       .  S
Zr1483     O1487   2.438       .  S
Zr1483     O1488   2.377       .  S
O1484      C1489   1.293       .  A
O1485      H1502   0.988       .  S
O1485      H1517   0.985       .  S
O1486      H1503   0.990       .  S
O1487      H1507   0.990       .  S
O1487      H1516   0.989       .  S
O1488      C1489   1.271       .  A
C1489      C2377   1.474   1_554  S
O1490      H1509   0.990       .  S
O1490      H1513   0.990       .  S
O1491      H1505   0.990       .  S
O1491      H1512   0.990       .  S
O1492      C1496   1.275       .  A
O1493      C1496   1.292       .  A
O1494      H1504   0.990       .  S
O1495      H1508   0.990       .  S
C1496      C2500   1.472       .  S
Zr1519     O1520   2.440       .  S
Zr1519     O1521   2.454       .  S
Zr1519     O1522   2.402       .  S
Zr1519     O1525   2.462       .  S
Zr1519     O1527   2.390       .  S
Zr1519     O1528   2.370       .  S
Zr1519     O1529   2.423       .  S
Zr1519     O1530   2.403       .  S
O1520      H1576   0.990       .  S
O1520      H1584   0.990       .  S
O1521      C1541   1.288       .  A
O1522      C1543   1.278       .  A
O1523     Zr1533   2.412       .  S
O1523      C1542   1.274       .  A
O1524     Zr1532   2.493       .  S
O1524      C1543   1.298       .  A
O1525      C1542   1.287       .  A
O1526     Zr1534   2.388       .  S
O1526      C1541   1.274       .  A
O1527     Zr1532   2.407       .  S
O1527     Zr1534   2.369       .  S
O1528     Zr1533   2.393       .  S
O1528     Zr1534   2.377       .  S
O1528      H1563   0.966       .  S
O1529     Zr1532   2.419       .  S
O1529     Zr1549   2.384       .  S
O1529      H1566   0.964       .  S
O1530     Zr1533   2.388       .  S
O1530     Zr1549   2.413       .  S
Zr1531     O1556   2.444       .  S
Zr1531     O1550   2.445       .  S
Zr1531     O1558   2.425       .  S
Zr1531     O1546   2.431       .  S
Zr1531     O1537   2.422       .  S
Zr1531     O1538   2.416       .  S
Zr1531     O1539   2.388       .  S
Zr1531     O1540   2.402       .  S
Zr1532     O1551   2.434       .  S
Zr1532     O1544   2.435       .  S
Zr1532     O1545   2.509       .  S
Zr1532     O1538   2.404       .  S
Zr1532     O1539   2.417       .  S
Zr1533     O1535   2.435       .  S
Zr1533     O1557   2.433       .  S
Zr1533     O1559   2.417       .  S
Zr1533     O1537   2.398       .  S
Zr1533     O1540   2.385       .  S
Zr1534     O1560   2.435       .  S
Zr1534     O1561   2.434       .  S
Zr1534     O1536   2.438       .  S
Zr1534     O1537   2.379       .  S
Zr1534     O1538   2.360       .  S
O1535      H1572   0.990       .  S
O1536      H1567   0.990       .  S
O1536      H1581   0.990       .  S
O1538      H1564   0.961       .  S
O1539     Zr1549   2.395       .  S
O1540     Zr1549   2.359       .  S
O1540      H1565   0.961       .  S
C1541      C2416   1.477       .  S
C1542      C2380   1.476       .  S
C1543      C2365   1.481       .  S
O1544      H1580   0.990       .  S
O1545      C1547   1.300       .  A
O1546      C1547   1.283       .  A
C1547      C2401   1.494       .  S
O1548     Zr1549   2.440       .  S
O1548      H1577   0.990       .  S
Zr1549     O1552   2.436       .  S
Zr1549     O1553   2.437       .  S
Zr1549     O1554   2.445       .  S
O1550      C1555   1.285       .  A
O1551      H1568   0.990       .  S
O1551      H1583   0.990       .  S
O1552      H1569   0.990       .  S
O1553      H1573   0.990       .  S
O1553      H1582   0.990       .  S
O1554      C1555   1.284       .  A
C1555      C2392   1.476       .  S
O1556      H1575   0.990       .  S
O1556      H1579   0.991       .  S
O1557      H1571   0.986       .  S
O1557      H1578   0.988       .  S
O1558      C1562   1.274       .  A
O1559      C1562   1.265       .  A
O1560      H1570   0.990       .  S
O1561      H1574   0.990       .  S
C1562      C2440   1.461       .  S
Zr1585     O1586   2.444       .  S
Zr1585     O1587   2.500       .  S
Zr1585     O1588   2.411       .  S
Zr1585     O1591   2.494       .  S
Zr1585     O1593   2.400       .  S
Zr1585     O1594   2.360       .  S
Zr1585     O1595   2.443       .  S
Zr1585     O1596   2.390       .  S
O1586      H1642   0.990       .  S
O1586      H1650   0.991       .  S
O1587      C1607   1.294       .  A
O1588      C1609   1.279       .  A
O1589     Zr1599   2.379       .  S
O1589      C1608   1.271       .  A
O1590     Zr1598   2.472       .  S
O1590      C1609   1.293       .  A
O1591      C1608   1.296       .  A
O1592     Zr1600   2.407       .  S
O1592      C1607   1.274       .  A
O1593     Zr1598   2.421       .  S
O1593     Zr1600   2.374       .  S
O1594     Zr1599   2.372       .  S
O1594     Zr1600   2.389       .  S
O1594      H1629   0.959       .  S
O1595     Zr1598   2.421       .  S
O1595     Zr1615   2.396       .  S
O1595      H1632   0.964       .  S
O1596     Zr1599   2.379       .  S
O1596     Zr1615   2.414       .  S
Zr1597     O1622   2.448       .  S
Zr1597     O1616   2.464       .  S
Zr1597     O1624   2.472       .  S
Zr1597     O1612   2.426       .  S
Zr1597     O1603   2.451       .  S
Zr1597     O1604   2.428       .  S
Zr1597     O1605   2.396       .  S
Zr1597     O1606   2.451       .  S
Zr1598     O1617   2.434       .  S
Zr1598     O1610   2.435       .  S
Zr1598     O1611   2.498       .  S
Zr1598     O1604   2.410       .  S
Zr1598     O1605   2.412       .  S
Zr1599     O1601   2.434       .  S
Zr1599     O1623   2.439       .  S
Zr1599     O1625   2.336       .  S
Zr1599     O1603   2.387       .  S
Zr1599     O1606   2.401       .  S
Zr1600     O1626   2.433   1_655  S
Zr1600     O1627   2.436   1_655  S
Zr1600     O1602   2.438   1_655  S
Zr1600     O1603   2.387       .  S
Zr1600     O1604   2.376       .  S
O1601      H1638   0.990       .  S
O1602      H1633   0.990       .  S
O1602      H1647   0.990   1_455  S
O1604      H1630   0.963       .  S
O1605     Zr1615   2.383       .  S
O1606     Zr1615   2.360       .  S
O1606      H1631   0.970       .  S
C1607      C2329   1.491       .  S
C1608      C2356   1.491       .  S
C1609      C2644   1.476       .  S
O1610      H1646   0.990       .  S
O1611      C1613   1.293       .  A
O1612      C1613   1.280       .  A
C1613      C2317   1.514       .  S
O1614     Zr1615   2.440       .  S
O1614      H1643   0.990       .  S
Zr1615     O1618   2.437       .  S
Zr1615     O1619   2.438       .  S
Zr1615     O1620   2.463       .  S
O1616      C1621   1.291       .  A
O1617      H1634   0.990       .  S
O1617      H1649   0.990       .  S
O1618      H1635   0.990       .  S
O1619      H1639   0.990       .  S
O1619      H1648   0.990       .  S
O1620      C1621   1.288       .  A
C1621      C2344   1.493       .  S
O1622      H1641   0.987   1_655  S
O1622      H1645   0.988       .  S
O1623      H1637   0.987       .  S
O1623      H1644   0.990       .  S
O1624      C1628   1.258       .  A
O1625      C1628   1.247       .  A
O1626      H1636   0.990       .  S
O1627      H1640   0.989       .  S
C1628      C2305   1.445       .  S
Zr1651     O1652   2.444       .  S
Zr1651     O1653   2.421       .  S
Zr1651     O1654   2.411       .  S
Zr1651     O1657   2.414       .  S
Zr1651     O1659   2.390       .  S
Zr1651     O1660   2.393       .  S
Zr1651     O1661   2.427       .  S
Zr1651     O1662   2.394       .  S
O1652      H1708   0.990       .  S
O1652      H1716   0.990       .  S
O1653      C1673   1.280       .  A
O1654      C1675   1.268       .  A
O1655     Zr1665   2.512       .  S
O1655      C1674   1.296       .  A
O1656     Zr1664   2.416   1_554  S
O1656      C1675   1.270       .  A
O1657      C1674   1.277       .  A
O1658     Zr1666   2.460       .  S
O1658      C1673   1.287       .  A
O1659     Zr1664   2.392   1_554  S
O1659     Zr1666   2.350       .  S
O1660     Zr1665   2.412       .  S
O1660     Zr1666   2.380       .  S
O1660      H1695   0.966       .  S
O1661     Zr1664   2.411   1_554  S
O1661     Zr1681   2.376   1_554  S
O1661      H1698   0.958       .  S
O1662     Zr1665   2.385       .  S
O1662     Zr1681   2.361   1_554  S
Zr1663     O1688   2.442       .  S
Zr1663     O1682   2.509       .  S
Zr1663     O1690   2.395       .  S
Zr1663     O1678   2.486       .  S
Zr1663     O1669   2.429       .  S
Zr1663     O1670   2.416       .  S
Zr1663     O1671   2.356       .  S
Zr1663     O1672   2.397       .  S
Zr1664     O1683   2.435       .  S
Zr1664     O1676   2.434   1_655  S
Zr1664     O1677   2.419       .  S
Zr1664     O1670   2.396       .  S
Zr1664     O1671   2.390       .  S
Zr1665     O1667   2.436       .  S
Zr1665     O1689   2.436       .  S
Zr1665     O1691   2.493   1_554  S
Zr1665     O1669   2.391   1_554  S
Zr1665     O1672   2.409   1_554  S
Zr1666     O1692   2.436       .  S
Zr1666     O1693   2.435   1_554  S
Zr1666     O1668   2.436   1_554  S
Zr1666     O1669   2.399   1_554  S
Zr1666     O1670   2.404   1_554  S
O1667      H1704   0.990       .  S
O1668      H1699   0.990   1_556  S
O1668      H1713   0.990       .  S
O1670      H1696   0.961       .  S
O1671     Zr1681   2.395       .  S
O1672     Zr1681   2.386       .  S
O1672      H1697   0.966       .  S
C1673      C2269   1.477   1_655  S
C1674      C2341   1.504       .  S
C1675      C2293   1.462   1_655  S
O1676      H1712   0.990       .  S
O1677      C1679   1.281       .  A
O1678      C1679   1.292       .  A
C1679      C2281   1.490       .  S
O1680     Zr1681   2.435   1_554  S
O1680      H1709   0.990       .  S
Zr1681     O1684   2.436       .  S
Zr1681     O1685   2.434       .  S
Zr1681     O1686   2.367       .  S
O1682      C1687   1.295       .  A
O1683      H1700   0.988   1_655  S
O1683      H1715   0.987       .  S
O1684      H1701   0.990       .  S
O1685      H1705   0.989       .  S
O1685      H1714   0.990       .  S
O1686      C1687   1.262       .  A
C1687      C2353   1.496       .  S
O1688      H1707   0.991       .  S
O1688      H1711   0.990       .  S
O1689      H1703   0.990       .  S
O1689      H1710   0.990       .  S
O1690      C1694   1.277       .  A
O1691      C1694   1.297       .  A
O1692      H1702   0.990       .  S
O1693      H1706   0.990       .  S
C1694      C2368   1.482       .  S
Zr1717     O1718   2.439       .  S
Zr1717     O1719   2.422       .  S
Zr1717     O1720   2.434       .  S
Zr1717     O1723   2.418       .  S
Zr1717     O1725   2.382       .  S
Zr1717     O1726   2.401       .  S
Zr1717     O1727   2.407       .  S
Zr1717     O1728   2.400       .  S
O1718      H1774   0.991       .  S
O1718      H1782   0.990       .  S
O1719      C1739   1.282       .  A
O1720      C1741   1.272       .  A
O1721     Zr1731   2.521       .  S
O1721      C1740   1.297       .  A
O1722     Zr1730   2.387   1_556  S
O1722      C1741   1.262       .  A
O1723      C1740   1.277       .  A
O1724     Zr1732   2.491       .  S
O1724      C1739   1.294       .  A
O1725     Zr1730   2.382   1_556  S
O1725     Zr1732   2.345       .  S
O1726     Zr1731   2.414       .  S
O1726     Zr1732   2.371       .  S
O1726      H1761   0.966       .  S
O1727     Zr1730   2.403   1_556  S
O1727     Zr1747   2.376   1_556  S
O1727      H1764   0.958       .  S
O1728     Zr1731   2.390       .  S
O1728     Zr1747   2.355   1_556  S
Zr1729     O1754   2.438       .  S
Zr1729     O1748   2.508       .  S
Zr1729     O1756   2.400       .  S
Zr1729     O1744   2.494       .  S
Zr1729     O1735   2.439   1_554  S
Zr1729     O1736   2.409       .  S
Zr1729     O1737   2.349       .  S
Zr1729     O1738   2.402       .  S
Zr1730     O1749   2.435       .  S
Zr1730     O1742   2.436       .  S
Zr1730     O1743   2.367       .  S
Zr1730     O1736   2.399       .  S
Zr1730     O1737   2.392       .  S
Zr1731     O1733   2.436       .  S
Zr1731     O1755   2.435       .  S
Zr1731     O1757   2.506       .  S
Zr1731     O1735   2.394       .  S
Zr1731     O1738   2.414   1_556  S
Zr1732     O1758   2.437       .  S
Zr1732     O1759   2.434       .  S
Zr1732     O1734   2.436       .  S
Zr1732     O1735   2.408       .  S
Zr1732     O1736   2.417   1_556  S
O1733      H1770   0.990       .  S
O1734      H1765   0.990       .  S
O1734      H1779   0.990       .  S
O1736      H1762   0.965       .  S
O1737     Zr1747   2.402       .  S
O1738     Zr1747   2.377       .  S
O1738      H1763   0.966       .  S
C1739      C2248   1.502       .  S
C1740      C2332   1.515       .  S
C1741      C2296   1.460       .  S
O1742      H1778   0.990       .  S
O1743      C1745   1.268       .  A
O1744      C1745   1.293       .  A
C1745      C2257   1.463       .  S
O1746     Zr1747   2.441   1_556  S
O1746      H1775   0.990   1_455  S
Zr1747     O1750   2.435       .  S
Zr1747     O1751   2.439   1_554  S
Zr1747     O1752   2.388       .  S
O1748      C1753   1.295       .  A
O1749      H1766   0.988       .  S
O1749      H1781   0.988       .  S
O1750      H1767   0.990   1_455  S
O1751      H1771   0.990   1_556  S
O1751      H1780   0.990       .  S
O1752      C1753   1.269       .  A
C1753      C2320   1.489       .  S
O1754      H1773   0.990       .  S
O1754      H1777   0.990       .  S
O1755      H1769   0.990       .  S
O1755      H1776   0.990       .  S
O1756      C1760   1.276       .  A
O1757      C1760   1.298   1_556  A
O1758      H1768   0.990       .  S
O1759      H1772   0.990   1_556  S
C1760      C3100   1.498       .  S
Zr1783     O1784   2.444       .  S
Zr1783     O1785   2.492       .  S
Zr1783     O1786   2.419       .  S
Zr1783     O1789   2.463       .  S
Zr1783     O1791   2.394       .  S
Zr1783     O1792   2.362       .  S
Zr1783     O1793   2.435       .  S
Zr1783     O1794   2.413       .  S
O1784      H1840   0.991       .  S
O1784      H1848   0.991       .  S
O1785      C1805   1.293       .  A
O1786      C1807   1.282       .  A
O1787     Zr1797   2.395       .  S
O1787      C1806   1.276       .  A
O1788     Zr1796   2.457       .  S
O1788      C1807   1.289       .  A
O1789      C1806   1.288       .  A
O1790     Zr1798   2.362       .  S
O1790      C1805   1.270       .  A
O1791     Zr1796   2.413       .  S
O1791     Zr1798   2.377       .  S
O1792     Zr1797   2.380       .  S
O1792     Zr1798   2.387       .  S
O1792      H1827   0.963       .  S
O1793     Zr1796   2.419       .  S
O1793     Zr1813   2.406       .  S
O1793      H1830   0.964       .  S
O1794     Zr1797   2.385       .  S
O1794     Zr1813   2.424       .  S
Zr1795     O1820   2.435       .  S
Zr1795     O1814   2.397       .  S
Zr1795     O1822   2.438       .  S
Zr1795     O1810   2.445       .  S
Zr1795     O1801   2.404       .  S
Zr1795     O1802   2.401       .  S
Zr1795     O1803   2.386       .  S
Zr1795     O1804   2.400       .  S
Zr1796     O1815   2.433       .  S
Zr1796     O1808   2.435       .  S
Zr1796     O1809   2.472       .  S
Zr1796     O1802   2.413       .  S
Zr1796     O1803   2.406       .  S
Zr1797     O1799   2.438       .  S
Zr1797     O1821   2.437       .  S
Zr1797     O1823   2.404       .  S
Zr1797     O1801   2.401       .  S
Zr1797     O1804   2.372       .  S
Zr1798     O1824   2.424       .  S
Zr1798     O1825   2.436       .  S
Zr1798     O1800   2.437       .  S
Zr1798     O1801   2.370       .  S
Zr1798     O1802   2.354       .  S
O1799      H1836   0.989   1_455  S
O1800      H1831   0.990       .  S
O1800      H1845   0.990       .  S
O1802      H1828   0.964       .  S
O1803     Zr1813   2.380       .  S
O1804     Zr1813   2.338       .  S
O1804      H1829   0.960       .  S
C1805      C2260   1.470       .  S
C1806      C2272   1.480       .  S
C1807      C2236   1.489       .  S
O1808      H1844   0.990       .  S
O1809      C1811   1.288       .  A
O1810      C1811   1.284       .  A
C1811      C2245   1.511       .  S
O1812     Zr1813   2.439       .  S
O1812      H1841   0.990       .  S
Zr1813     O1816   2.436       .  S
Zr1813     O1817   2.437       .  S
Zr1813     O1818   2.490       .  S
O1814      C1819   1.278       .  A
O1815      H1832   0.990       .  S
O1815      H1847   0.989       .  S
O1816      H1833   0.990       .  S
O1817      H1837   0.990       .  S
O1817      H1846   0.990       .  S
O1818      C1819   1.293       .  A
C1819      C2284   1.471       .  S
O1820      H1839   0.990       .  S
O1820      H1843   0.990       .  S
O1821      H1835   0.989       .  S
O1821      H1842   0.988       .  S
O1822      C1826   1.278       .  A
O1823      C1826   1.260       .  A
O1824      H1834   0.989       .  S
O1825      H1838   0.990       .  S
C1826      C2308   1.457       .  S
Zr1849     O1850   2.443       .  S
Zr1849     O1851   2.434       .  S
Zr1849     O1852   2.417       .  S
Zr1849     O1855   2.414       .  S
Zr1849     O1857   2.376       .  S
Zr1849     O1858   2.394       .  S
Zr1849     O1859   2.430       .  S
Zr1849     O1860   2.410       .  S
O1850      H1906   0.990       .  S
O1850      H1914   0.991       .  S
O1851      C1871   1.283       .  A
O1852      C1873   1.273       .  A
O1853     Zr1863   2.521       .  S
O1853      C1872   1.297       .  A
O1854     Zr1862   2.431       .  S
O1854      C1873   1.274       .  A
O1855      C1872   1.273       .  A
O1856     Zr1864   2.441       .  S
O1856      C1871   1.283       .  A
O1857     Zr1862   2.379       .  S
O1857     Zr1864   2.365       .  S
O1858     Zr1863   2.414       .  S
O1858     Zr1864   2.387       .  S
O1858      H1893   0.966       .  S
O1859     Zr1862   2.392       .  S
O1859     Zr1879   2.377       .  S
O1859      H1896   0.955       .  S
O1860     Zr1863   2.366       .  S
O1860     Zr1879   2.360       .  S
Zr1861     O1886   2.444       .  S
Zr1861     O1880   2.477       .  S
Zr1861     O1888   2.437       .  S
Zr1861     O1876   2.520       .  S
Zr1861     O1867   2.431       .  S
Zr1861     O1868   2.407       .  S
Zr1861     O1869   2.367       .  S
Zr1861     O1870   2.413       .  S
Zr1862     O1881   2.427       .  S
Zr1862     O1874   2.430       .  S
Zr1862     O1875   2.385       .  S
Zr1862     O1868   2.405       .  S
Zr1862     O1869   2.384       .  S
Zr1863     O1865   2.436       .  S
Zr1863     O1887   2.436       .  S
Zr1863     O1889   2.459       .  S
Zr1863     O1867   2.414       .  S
Zr1863     O1870   2.418       .  S
Zr1864     O1890   2.436       .  S
Zr1864     O1891   2.435       .  S
Zr1864     O1866   2.437       .  S
Zr1864     O1867   2.395       .  S
Zr1864     O1868   2.400       .  S
O1865      H1902   0.990       .  S
O1866      H1897   0.990       .  S
O1866      H1911   0.990       .  S
O1868      H1894   0.964       .  S
O1869     Zr1879   2.388       .  S
O1870     Zr1879   2.373       .  S
O1870      H1895   0.966       .  S
C1871      C2188   1.472       .  S
C1872      C2212   1.504       .  S
C1873      C2200   1.472       .  S
O1874      H1910   0.990       .  S
O1875      C1877   1.276       .  A
O1876      C1877   1.298       .  A
C1877      C2173   1.505       .  S
O1878     Zr1879   2.440       .  S
O1878      H1907   0.990       .  S
Zr1879     O1882   2.434       .  S
Zr1879     O1883   2.439       .  S
Zr1879     O1884   2.386       .  S
O1880      C1885   1.290       .  A
O1881      H1898   0.987       .  S
O1881      H1913   0.986       .  S
O1882      H1899   0.990       .  S
O1883      H1903   0.990       .  S
O1883      H1912   0.989       .  S
O1884      C1885   1.272       .  A
C1885      C2221   1.474       .  S
O1886      H1905   0.990       .  S
O1886      H1909   0.991       .  S
O1887      H1901   0.990       .  S
O1887      H1908   0.990       .  S
O1888      C1892   1.285       .  A
O1889      C1892   1.291       .  A
O1890      H1900   0.990       .  S
O1891      H1904   0.990       .  S
C1892      C2944   1.488       .  S
Zr1915     O1916   2.439       .  S
Zr1915     O1917   2.475       .  S
Zr1915     O1918   2.402       .  S
Zr1915     O1921   2.457       .  S
Zr1915     O1923   2.398       .  S
Zr1915     O1924   2.377       .  S
Zr1915     O1925   2.433       .  S
Zr1915     O1926   2.404       .  S
O1916      H1972   0.990       .  S
O1916      H1980   0.990       .  S
O1917      C1937   1.284       .  A
O1918      C1939   1.279       .  A
O1919     Zr1929   2.407       .  S
O1919      C1938   1.276       .  A
O1920     Zr1928   2.508       .  S
O1920      C1939   1.300       .  A
O1921      C1938   1.287       .  A
O1922     Zr1930   2.397       .  S
O1922      C1937   1.268       .  A
O1923     Zr1928   2.399       .  S
O1923     Zr1930   2.360       .  S
O1924     Zr1929   2.388       .  S
O1924     Zr1930   2.381       .  S
O1924      H1959   0.965       .  S
O1925     Zr1928   2.412       .  S
O1925     Zr1945   2.413       .  S
O1925      H1962   0.966       .  S
O1926     Zr1929   2.387       .  S
O1926     Zr1945   2.415       .  S
Zr1927     O1952   2.444       .  S
Zr1927     O1946   2.483       .  S
Zr1927     O1954   2.439       .  S
Zr1927     O1942   2.442       .  S
Zr1927     O1933   2.413       .  S
Zr1927     O1934   2.430       .  S
Zr1927     O1935   2.396       .  S
Zr1927     O1936   2.397       .  S
Zr1928     O1947   2.433       .  S
Zr1928     O1940   2.434       .  S
Zr1928     O1941   2.504       .  S
Zr1928     O1934   2.407       .  S
Zr1928     O1935   2.423       .  S
Zr1929     O1931   2.436       .  S
Zr1929     O1953   2.437       .  S
Zr1929     O1955   2.423       .  S
Zr1929     O1933   2.390       .  S
Zr1929     O1936   2.378       .  S
Zr1930     O1956   2.439       .  S
Zr1930     O1957   2.429       .  S
Zr1930     O1932   2.438       .  S
Zr1930     O1933   2.373       .  S
Zr1930     O1934   2.368       .  S
O1931      H1968   0.990       .  S
O1932      H1963   0.989       .  S
O1932      H1977   0.990       .  S
O1934      H1960   0.959       .  S
O1935     Zr1945   2.394       .  S
O1936     Zr1945   2.375       .  S
O1936      H1961   0.964       .  S
C1937      C2137   1.497       .  S
C1938      C2224   1.479       .  S
C1939      C2785   1.511       .  S
O1940      H1976   0.990       .  S
O1941      C1943   1.298       .  A
O1942      C1943   1.284       .  A
C1943      C2149   1.493       .  S
O1944     Zr1945   2.440       .  S
O1944      H1973   0.990       .  S
Zr1945     O1948   2.437       .  S
Zr1945     O1949   2.437       .  S
Zr1945     O1950   2.457       .  S
O1946      C1951   1.291       .  A
O1947      H1964   0.990       .  S
O1947      H1979   0.990       .  S
O1948      H1965   0.990       .  S
O1949      H1969   0.990       .  S
O1949      H1978   0.990       .  S
O1950      C1951   1.287       .  A
C1951      C2209   1.498       .  S
O1952      H1971   0.991       .  S
O1952      H1975   0.990       .  S
O1953      H1967   0.988       .  S
O1953      H1974   0.989       .  S
O1954      C1958   1.279       .  A
O1955      C1958   1.271       .  A
O1956      H1966   0.990       .  S
O1957      H1970   0.989       .  S
C1958      C2164   1.481       .  S
Zr1981     O1982   2.437       .  S
Zr1981     O1983   2.437       .  S
Zr1981     O1984   2.431       .  S
Zr1981     O1987   2.421       .  S
Zr1981     O1989   2.377       .  S
Zr1981     O1990   2.394       .  S
Zr1981     O1991   2.423       .  S
Zr1981     O1992   2.416       .  S
O1982      H2038   0.990       .  S
O1982      H2046   0.991       .  S
O1983      C2003   1.283       .  A
O1984      C2005   1.275       .  A
O1985     Zr1995   2.496       .  S
O1985      C2004   1.288       .  A
O1986     Zr1994   2.427       .  S
O1986      C2005   1.273       .  A
O1987      C2004   1.276       .  A
O1988     Zr1996   2.440       .  S
O1988      C2003   1.283       .  A
O1989     Zr1994   2.381       .  S
O1989     Zr1996   2.370       .  S
O1990     Zr1995   2.416       .  S
O1990     Zr1996   2.382       .  S
O1990      H2025   0.966       .  S
O1991     Zr1994   2.385       .  S
O1991     Zr2011   2.369       .  S
O1991      H2028   0.958       .  S
O1992     Zr1995   2.382       .  S
O1992     Zr2011   2.376       .  S
Zr1993     O2018   2.441       .  S
Zr1993     O2012   2.465       .  S
Zr1993     O2020   2.400       .  S
Zr1993     O2008   2.493       .  S
Zr1993     O1999   2.423       .  S
Zr1993     O2000   2.399       .  S
Zr1993     O2001   2.364       .  S
Zr1993     O2002   2.400       .  S
Zr1994     O2013   2.427       .  S
Zr1994     O2006   2.432       .  S
Zr1994     O2007   2.362       .  S
Zr1994     O2000   2.403       .  S
Zr1994     O2001   2.390       .  S
Zr1995     O1997   2.435       .  S
Zr1995     O2019   2.436       .  S
Zr1995     O2021   2.454       .  S
Zr1995     O1999   2.410       .  S
Zr1995     O2002   2.406       .  S
Zr1996     O2022   2.436       .  S
Zr1996     O2023   2.435       .  S
Zr1996     O1998   2.437       .  S
Zr1996     O1999   2.395       .  S
Zr1996     O2000   2.398       .  S
O1997      H2034   0.990       .  S
O1998      H2029   0.990       .  S
O1998      H2043   0.990       .  S
O2000      H2026   0.965       .  S
O2001     Zr2011   2.382       .  S
O2002     Zr2011   2.363       .  S
O2002      H2027   0.966       .  S
C2003      C2113   1.475       .  S
C2004      C2176   1.512       .  S
C2005      C2161   1.481       .  S
O2006      H2042   0.990       .  S
O2007      C2009   1.271       .  A
O2008      C2009   1.294       .  A
C2009      C2128   1.472       .  S
O2010     Zr2011   2.436       .  S
O2010      H2039   0.990       .  S
Zr2011     O2014   2.436       .  S
Zr2011     O2015   2.437       .  S
Zr2011     O2016   2.396       .  S
O2012      C2017   1.290       .  A
O2013      H2030   0.989       .  S
O2013      H2045   0.986       .  S
O2014      H2031   0.990       .  S
O2015      H2035   0.989       .  S
O2015      H2044   0.989       .  S
O2016      C2017   1.276       .  A
C2017      C2185   1.488       .  S
O2018      H2037   0.990       .  S
O2018      H2041   0.990       .  S
O2019      H2033   0.990       .  S
O2019      H2040   0.990       .  S
O2020      C2024   1.279       .  A
O2021      C2024   1.290       .  A
O2022      H2032   0.990       .  S
O2023      H2036   0.990       .  S
C2024      C2536   1.473       .  S
Zr2047     O2048   2.439       .  S
Zr2047     O2049   2.451       .  S
Zr2047     O2050   2.434       .  S
Zr2047     O2053   2.504       .  S
Zr2047     O2055   2.404       .  S
Zr2047     O2056   2.395       .  S
Zr2047     O2057   2.435       .  S
Zr2047     O2058   2.396       .  S
O2048      H2104   0.990       .  S
O2048      H2112   0.990       .  S
O2049      C2069   1.282       .  A
O2050      C2071   1.286       .  A
O2051     Zr2061   2.392       .  S
O2051      C2070   1.275       .  A
O2052     Zr2060   2.444       .  S
O2052      C2071   1.286       .  A
O2053      C2070   1.298       .  A
O2054     Zr2062   2.395       .  S
O2054      C2069   1.267       .  A
O2055     Zr2060   2.391       .  S
O2055     Zr2062   2.356       .  S
O2056     Zr2061   2.380       .  S
O2056     Zr2062   2.399       .  S
O2056      H2091   0.964       .  S
O2057     Zr2060   2.413       .  S
O2057     Zr2077   2.411       .  S
O2057      H2094   0.966       .  S
O2058     Zr2061   2.389       .  S
O2058     Zr2077   2.402       .  S
Zr2059     O2084   2.444       .  S
Zr2059     O2078   2.433       .  S
Zr2059     O2086   2.430       .  S
Zr2059     O2074   2.425       .  S
Zr2059     O2065   2.410       .  S
Zr2059     O2066   2.421       .  S
Zr2059     O2067   2.390       .  S
Zr2059     O2068   2.401       .  S
Zr2060     O2079   2.434       .  S
Zr2060     O2072   2.435       .  S
Zr2060     O2073   2.463       .  S
Zr2060     O2066   2.403       .  S
Zr2060     O2067   2.398       .  S
Zr2061     O2063   2.434       .  S
Zr2061     O2085   2.438       .  S
Zr2061     O2087   2.412       .  S
Zr2061     O2065   2.392       .  S
Zr2061     O2068   2.378       .  S
Zr2062     O2088   2.435       .  S
Zr2062     O2089   2.434       .  S
Zr2062     O2064   2.437       .  S
Zr2062     O2065   2.370       .  S
Zr2062     O2066   2.383       .  S
O2063      H2100   0.990       .  S
O2064      H2095   0.990       .  S
O2064      H2109   0.990       .  S
O2066      H2092   0.963       .  S
O2067     Zr2077   2.389       .  S
O2068     Zr2077   2.376       .  S
O2068      H2093   0.964       .  S
C2069      C2125   1.485       .  S
C2070      C2152   1.502       .  S
C2071      C2233   1.494       .  S
O2072      H2108   0.991       .  S
O2073      C2075   1.288       .  A
O2074      C2075   1.280       .  A
C2075      C2116   1.476       .  S
O2076     Zr2077   2.439       .  S
O2076      H2105   0.990       .  S
Zr2077     O2080   2.437       .  S
Zr2077     O2081   2.437       .  S
Zr2077     O2082   2.440       .  S
O2078      C2083   1.282       .  A
O2079      H2096   0.990       .  S
O2079      H2111   0.990       .  S
O2080      H2097   0.990       .  S
O2081      H2101   0.990       .  S
O2081      H2110   0.990       .  S
O2082      C2083   1.284       .  A
C2083      C2140   1.467       .  S
O2084      H2103   0.991       .  S
O2084      H2107   0.991       .  S
O2085      H2099   0.990       .  S
O2085      H2106   0.989       .  S
O2086      C2090   1.276       .  A
O2087      C2090   1.266       .  A
O2088      H2098   0.990       .  S
O2089      H2102   0.990       .  S
C2090      C2197   1.470       .  S
C2113      C2114   1.400       .  A
C2113      C2118   1.414       .  A
C2114      C2115   1.403   1_556  A
C2114      H2123   1.084   1_556  S
C2115      C2116   1.416       .  A
C2115      S2119   1.801       .  S
C2116      C2117   1.402   1_554  A
C2117      C2118   1.401       .  A
C2117      H2124   1.084       .  S
C2118      S2120   1.803       .  S
S2119      H2122   1.404       .  S
S2120      H2121   1.403       .  S
C2125      C2126   1.415       .  A
C2125      C2130   1.414       .  A
C2126      C2127   1.406       .  A
C2126      H2135   1.084       .  S
C2127      C2128   1.408       .  A
C2127      S2131   1.802       .  S
C2128      C2129   1.405       .  A
C2129      C2130   1.392       .  A
C2129      H2136   1.085       .  S
C2130      S2132   1.802       .  S
S2131      H2134   1.405       .  S
S2132      H2133   1.408       .  S
C2137      C2138   1.414       .  A
C2137      C2142   1.415       .  A
C2138      C2139   1.396       .  A
C2138      H2147   1.080       .  S
C2139      C2140   1.403   1_556  A
C2139      S2143   1.805       .  S
C2140      C2141   1.404       .  A
C2141      C2142   1.403   1_554  A
C2141      H2148   1.084       .  S
C2142      S2144   1.794   1_556  S
S2143      H2146   1.406       .  S
S2144      H2145   1.396   1_554  S
C2149      C2150   1.399       .  A
C2149      C2154   1.420       .  A
C2150      C2151   1.407       .  A
C2150      H2159   1.084       .  S
C2151      C2152   1.426       .  A
C2151      S2155   1.803       .  S
C2152      C2153   1.400       .  A
C2153      C2154   1.408       .  A
C2153      H2160   1.084       .  S
C2154      S2156   1.794       .  S
S2155      H2158   1.407       .  S
S2156      H2157   1.406       .  S
C2161      C2162   1.408       .  A
C2161      C2166   1.404       .  A
C2162      C2163   1.398       .  A
C2162      H2171   1.082       .  S
C2163      C2164   1.411       .  A
C2163      S2167   1.808       .  S
C2164      C2165   1.410       .  A
C2165      C2166   1.400       .  A
C2165      H2172   1.079       .  S
C2166      S2168   1.805       .  S
S2167      H2170   1.407       .  S
S2168      H2169   1.407       .  S
C2173      C2174   1.411   1_554  A
C2173      C2178   1.418       .  A
C2174      C2175   1.425       .  A
C2174      H2183   1.083       .  S
C2175      C2176   1.426       .  A
C2175      S2179   1.796       .  S
C2176      C2177   1.402       .  A
C2177      C2178   1.386   1_556  A
C2177      H2184   1.084   1_556  S
C2178      S2180   1.806       .  S
S2179      H2182   1.407       .  S
S2180      H2181   1.408       .  S
C2185      C2186   1.402       .  A
C2185      C2190   1.421       .  A
C2186      C2187   1.401       .  A
C2186      H2195   1.084       .  S
C2187      C2188   1.413       .  A
C2187      S2191   1.800       .  S
C2188      C2189   1.396       .  A
C2189      C2190   1.403       .  A
C2189      H2196   1.083       .  S
C2190      S2192   1.808       .  S
S2191      H2194   1.405       .  S
S2192      H2193   1.407       .  S
C2197      C2198   1.409       .  A
C2197      C2202   1.411       .  A
C2198      C2199   1.393       .  A
C2198      H2207   1.081       .  S
C2199      C2200   1.404       .  A
C2199      S2203   1.802       .  S
C2200      C2201   1.406       .  A
C2201      C2202   1.393       .  A
C2201      H2208   1.084       .  S
C2202      S2204   1.803       .  S
S2203      H2206   1.407       .  S
S2204      H2205   1.407       .  S
C2209      C2210   1.405       .  A
C2209      C2214   1.415       .  A
C2210      C2211   1.410       .  A
C2210      H2219   1.083       .  S
C2211      C2212   1.417       .  A
C2211      S2215   1.808       .  S
C2212      C2213   1.411       .  A
C2213      C2214   1.416       .  A
C2213      H2220   1.083       .  S
C2214      S2216   1.802       .  S
S2215      H2218   1.407       .  S
S2216      H2217   1.406       .  S
C2221      C2222   1.403       .  A
C2221      C2226   1.412   1_554  A
C2222      C2223   1.396   1_554  A
C2222      H2231   1.084       .  S
C2223      C2224   1.411       .  A
C2223      S2227   1.802       .  S
C2224      C2225   1.409       .  A
C2225      C2226   1.408       .  A
C2225      H2232   1.084       .  S
C2226      S2228   1.804       .  S
S2227      H2230   1.405       .  S
S2228      H2229   1.404   1_556  S
C2233      C2234   1.409       .  A
C2233      C2238   1.418       .  A
C2234      C2235   1.401       .  A
C2234      H2243   1.084       .  S
C2235      C2236   1.415       .  A
C2235      S2239   1.798       .  S
C2236      C2237   1.407       .  A
C2237      C2238   1.399       .  A
C2237      H2244   1.084       .  S
C2238      S2240   1.801       .  S
S2239      H2242   1.407       .  S
S2240      H2241   1.407       .  S
C2245      C2246   1.401       .  A
C2245      C2250   1.422       .  A
C2246      C2247   1.392       .  A
C2246      H2255   1.078       .  S
C2247      C2248   1.416       .  A
C2247      S2251   1.803       .  S
C2248      C2249   1.411       .  A
C2249      C2250   1.421       .  A
C2249      H2256   1.083       .  S
C2250      S2252   1.799       .  S
S2251      H2254   1.407       .  S
S2252      H2253   1.407       .  S
C2257      C2258   1.397       .  A
C2257      C2262   1.415       .  A
C2258      C2259   1.394       .  A
C2258      H2267   1.084       .  S
C2259      C2260   1.413       .  A
C2259      S2263   1.806       .  S
C2260      C2261   1.403       .  A
C2261      C2262   1.408       .  A
C2261      H2268   1.083       .  S
C2262      S2264   1.802       .  S
S2263      H2266   1.407       .  S
S2264      H2265   1.406       .  S
C2269      C2270   1.405       .  A
C2269      C2274   1.408       .  A
C2270      C2271   1.401       .  A
C2270      H2279   1.083       .  S
C2271      C2272   1.412       .  A
C2271      S2275   1.802       .  S
C2272      C2273   1.409       .  A
C2273      C2274   1.403       .  A
C2273      H2280   1.084       .  S
C2274      S2276   1.801   1_455  S
S2275      H2278   1.405       .  S
S2276      H2277   1.405       .  S
C2281      C2282   1.402       .  A
C2281      C2286   1.421   1_655  A
C2282      C2283   1.407       .  A
C2282      H2291   1.083       .  S
C2283      C2284   1.415   1_655  A
C2283      S2287   1.805       .  S
C2284      C2285   1.396       .  A
C2285      C2286   1.399       .  A
C2285      H2292   1.084       .  S
C2286      S2288   1.801       .  S
S2287      H2290   1.407       .  S
S2288      H2289   1.405   1_455  S
C2293      C2294   1.402       .  A
C2293      C2298   1.409       .  A
C2294      C2295   1.394   1_554  A
C2294      H2303   1.084       .  S
C2295      C2296   1.412       .  A
C2295      S2299   1.805       .  S
C2296      C2297   1.401       .  A
C2297      C2298   1.389   1_556  A
C2297      H2304   1.079       .  S
C2298      S2300   1.805   1_455  S
S2299      H2302   1.399       .  S
S2300      H2301   1.407       .  S
C2305      C2306   1.398       .  A
C2305      C2310   1.407   1_655  A
C2306      C2307   1.393       .  A
C2306      H2315   1.080       .  S
C2307      C2308   1.412   1_655  A
C2307      S2311   1.805       .  S
C2308      C2309   1.401       .  A
C2309      C2310   1.391       .  A
C2309      H2316   1.082       .  S
C2310      S2312   1.804       .  S
S2311      H2314   1.407       .  S
S2312      H2313   1.407       .  S
C2317      C2318   1.410       .  A
C2317      C2322   1.422       .  A
C2318      C2319   1.396   1_655  A
C2318      H2327   1.083       .  S
C2319      C2320   1.407       .  A
C2319      S2323   1.802       .  S
C2320      C2321   1.411       .  A
C2321      C2322   1.419   1_455  A
C2321      H2328   1.083       .  S
C2322      S2324   1.799       .  S
S2323      H2326   1.405       .  S
S2324      H2325   1.407       .  S
C2329      C2330   1.415       .  A
C2329      C2334   1.404   1_655  A
C2330      C2331   1.426   1_655  A
C2330      H2339   1.083       .  S
C2331      C2332   1.423       .  A
C2331      S2335   1.798       .  S
C2332      C2333   1.406       .  A
C2333      C2334   1.387       .  A
C2333      H2340   1.080       .  S
C2334      S2336   1.798   1_455  S
S2335      H2338   1.407       .  S
S2336      H2337   1.407       .  S
C2341      C2342   1.407       .  A
C2341      C2346   1.421       .  A
C2342      C2343   1.403       .  A
C2342      H2351   1.084       .  S
C2343      C2344   1.413       .  A
C2343      S2347   1.795       .  S
C2344      C2345   1.402       .  A
C2345      C2346   1.412       .  A
C2345      H2352   1.084       .  S
C2346      S2348   1.790       .  S
S2347      H2350   1.404       .  S
S2348      H2349   1.406       .  S
C2353      C2354   1.399       .  A
C2353      C2358   1.432       .  A
C2354      C2355   1.402       .  A
C2354      H2363   1.084       .  S
C2355      C2356   1.425       .  A
C2355      S2359   1.804       .  S
C2356      C2357   1.394       .  A
C2357      C2358   1.400       .  A
C2357      H2364   1.083       .  S
C2358      S2360   1.810       .  S
S2359      H2362   1.408       .  S
S2360      H2361   1.407       .  S
C2365      C2366   1.402       .  A
C2365      C2370   1.417       .  A
C2366      C2367   1.400       .  A
C2366      H2375   1.084       .  S
C2367      C2368   1.416       .  A
C2367      S2371   1.805       .  S
C2368      C2369   1.404       .  A
C2369      C2370   1.407       .  A
C2369      H2376   1.084       .  S
C2370      S2372   1.803       .  S
S2371      H2374   1.407       .  S
S2372      H2373   1.407       .  S
C2377      C2378   1.408       .  A
C2377      C2382   1.413       .  A
C2378      C2379   1.410       .  A
C2378      H2387   1.084       .  S
C2379      C2380   1.414       .  A
C2379      S2383   1.803       .  S
C2380      C2381   1.398       .  A
C2381      C2382   1.395       .  A
C2381      H2388   1.082       .  S
C2382      S2384   1.804   1_556  S
S2383      H2386   1.407       .  S
S2384      H2385   1.403       .  S
C2389      C2390   1.400       .  A
C2389      C2394   1.414       .  A
C2390      C2391   1.407       .  A
C2390      H2399   1.083       .  S
C2391      C2392   1.416       .  A
C2391      S2395   1.806       .  S
C2392      C2393   1.398       .  A
C2393      C2394   1.400       .  A
C2393      H2400   1.084       .  S
C2394      S2396   1.793       .  S
S2395      H2398   1.407       .  S
S2396      H2397   1.405       .  S
C2401      C2402   1.411       .  A
C2401      C2406   1.406       .  A
C2402      C2403   1.417       .  A
C2402      H2411   1.084       .  S
C2403      C2404   1.419       .  A
C2403      S2407   1.799       .  S
C2404      C2405   1.417       .  A
C2405      C2406   1.408       .  A
C2405      H2412   1.080       .  S
C2406      S2408   1.808       .  S
S2407      H2410   1.407       .  S
S2408      H2409   1.407       .  S
C2413      C2414   1.399   1_554  A
C2413      C2418   1.413       .  A
C2414      C2415   1.406       .  A
C2414      H2423   1.083       .  S
C2415      C2416   1.419       .  A
C2415      S2419   1.807       .  S
C2416      C2417   1.398       .  A
C2417      C2418   1.393   1_556  A
C2417      H2424   1.084       .  S
C2418      S2420   1.795       .  S
S2419      H2422   1.407       .  S
S2420      H2421   1.406       .  S
C2425      C2426   1.402       .  A
C2425      C2430   1.412       .  A
C2426      C2427   1.390       .  A
C2426      H2435   1.069       .  S
C2427      C2428   1.403       .  A
C2427      S2431   1.805       .  S
C2428      C2429   1.407       .  A
C2429      C2430   1.399       .  A
C2429      H2436   1.075       .  S
C2430      S2432   1.816       .  S
S2431      H2434   1.408       .  S
S2432      H2433   1.408       .  S
C2437      C2438   1.401       .  A
C2437      C2442   1.404       .  A
C2438      C2439   1.390       .  A
C2438      H2447   1.077       .  S
C2439      C2440   1.407       .  A
C2439      S2443   1.805       .  S
C2440      C2441   1.406       .  A
C2441      C2442   1.394       .  A
C2441      H2448   1.081       .  S
C2442      S2444   1.803       .  S
S2443      H2446   1.407       .  S
S2444      H2445   1.407       .  S
C2449      C2450   1.403       .  A
C2449      C2454   1.423       .  A
C2450      C2451   1.410       .  A
C2450      H2459   1.084       .  S
C2451      C2452   1.420       .  A
C2451      S2455   1.798       .  S
C2452      C2453   1.399       .  A
C2453      C2454   1.404       .  A
C2453      H2460   1.084       .  S
C2454      S2456   1.805       .  S
S2455      H2458   1.403       .  S
S2456      H2457   1.407       .  S
C2461      C2462   1.403       .  A
C2461      C2466   1.414       .  A
C2462      C2463   1.406   1_556  A
C2462      H2471   1.084       .  S
C2463      C2464   1.417       .  A
C2463      S2467   1.802       .  S
C2464      C2465   1.393   1_554  A
C2465      C2466   1.388       .  A
C2465      H2472   1.083       .  S
C2466      S2468   1.786       .  S
S2467      H2470   1.407       .  S
S2468      H2469   1.404       .  S
C2473      C2474   1.421       .  A
C2473      C2478   1.422       .  A
C2474      C2475   1.435       .  A
C2474      H2483   1.083       .  S
C2475      C2476   1.424   1_556  A
C2475      S2479   1.799       .  S
C2476      C2477   1.404   1_554  A
C2477      C2478   1.392       .  A
C2477      H2484   1.077   1_556  S
C2478      S2480   1.809       .  S
S2479      H2482   1.406   1_556  S
S2480      H2481   1.408   1_556  S
C2485      C2486   1.408       .  A
C2485      C2490   1.414       .  A
C2486      C2487   1.404       .  A
C2486      H2495   1.084       .  S
C2487      C2488   1.411       .  A
C2487      S2491   1.803       .  S
C2488      C2489   1.396       .  A
C2489      C2490   1.394       .  A
C2489      H2496   1.083       .  S
C2490      S2492   1.800       .  S
S2491      H2494   1.406       .  S
S2492      H2493   1.406       .  S
C2497      C2498   1.401       .  A
C2497      C2502   1.413       .  A
C2498      C2499   1.399       .  A
C2498      H2507   1.084       .  S
C2499      C2500   1.414       .  A
C2499      S2503   1.804       .  S
C2500      C2501   1.403       .  A
C2501      C2502   1.402       .  A
C2501      H2508   1.084       .  S
C2502      S2504   1.804       .  S
S2503      H2506   1.407       .  S
S2504      H2505   1.407       .  S
C2509      C2510   1.407       .  A
C2509      C2514   1.419       .  A
C2510      C2511   1.407       .  A
C2510      H2519   1.084       .  S
C2511      C2512   1.414       .  A
C2511      S2515   1.798       .  S
C2512      C2513   1.403       .  A
C2513      C2514   1.412       .  A
C2513      H2520   1.084       .  S
C2514      S2516   1.792       .  S
S2515      H2518   1.407       .  S
S2516      H2517   1.406       .  S
C2521      C2522   1.405       .  A
C2521      C2526   1.404       .  A
C2522      C2523   1.395       .  A
C2522      H2531   1.077       .  S
C2523      C2524   1.412       .  A
C2523      S2527   1.800       .  S
C2524      C2525   1.420       .  A
C2525      C2526   1.403       .  A
C2525      H2532   1.083       .  S
C2526      S2528   1.802       .  S
S2527      H2530   1.407       .  S
S2528      H2529   1.406       .  S
C2533      C2534   1.400       .  A
C2533      C2538   1.413       .  A
C2534      C2535   1.398       .  A
C2534      H2543   1.083       .  S
C2535      C2536   1.414       .  A
C2535      S2539   1.811       .  S
C2536      C2537   1.402       .  A
C2537      C2538   1.403       .  A
C2537      H2544   1.083       .  S
C2538      S2540   1.808       .  S
S2539      H2542   1.407       .  S
S2540      H2541   1.407       .  S
C2545      C2546   1.411       .  A
C2545      C2550   1.420       .  A
C2546      C2547   1.423       .  A
C2546      H2555   1.083       .  S
C2547      C2548   1.425       .  A
C2547      S2551   1.798       .  S
C2548      C2549   1.396       .  A
C2549      C2550   1.386       .  A
C2549      H2556   1.085       .  S
C2550      S2552   1.794       .  S
S2551      H2554   1.407       .  S
S2552      H2553   1.406       .  S
C2557      C2558   1.405       .  A
C2557      C2562   1.407       .  A
C2558      C2559   1.394       .  A
C2558      H2567   1.085       .  S
C2559      C2560   1.411       .  A
C2559      S2563   1.802       .  S
C2560      C2561   1.414       .  A
C2561      C2562   1.405       .  A
C2561      H2568   1.084       .  S
C2562      S2564   1.803       .  S
S2563      H2566   1.407       .  S
S2564      H2565   1.405       .  S
C2569      C2570   1.399       .  A
C2569      C2574   1.415       .  A
C2570      C2571   1.387       .  A
C2570      H2579   1.081       .  S
C2571      C2572   1.416       .  A
C2571      S2575   1.804       .  S
C2572      C2573   1.403       .  A
C2573      C2574   1.399       .  A
C2573      H2580   1.081       .  S
C2574      S2576   1.812       .  S
S2575      H2578   1.408       .  S
S2576      H2577   1.406       .  S
C2581      C2582   1.393       .  A
C2581      C2586   1.415       .  A
C2582      C2583   1.393       .  A
C2582      H2591   1.082       .  S
C2583      C2584   1.422       .  A
C2583      S2587   1.801       .  S
C2584      C2585   1.409       .  A
C2585      C2586   1.412       .  A
C2585      H2592   1.083       .  S
C2586      S2588   1.802       .  S
S2587      H2590   1.408       .  S
S2588      H2589   1.406       .  S
C2593      C2594   1.409       .  A
C2593      C2598   1.409       .  A
C2594      C2595   1.414       .  A
C2594      H2603   1.084       .  S
C2595      C2596   1.418       .  A
C2595      S2599   1.796       .  S
C2596      C2597   1.412       .  A
C2597      C2598   1.402       .  A
C2597      H2604   1.084       .  S
C2598      S2600   1.803       .  S
S2599      H2602   1.406       .  S
S2600      H2601   1.407       .  S
C2605      C2606   1.407       .  A
C2605      C2610   1.412   1_554  A
C2606      C2607   1.397   1_554  A
C2606      H2615   1.083       .  S
C2607      C2608   1.412       .  A
C2607      S2611   1.803       .  S
C2608      C2609   1.407       .  A
C2609      C2610   1.400       .  A
C2609      H2616   1.080       .  S
C2610      S2612   1.804   1_556  S
S2611      H2614   1.407       .  S
S2612      H2613   1.407       .  S
C2617      C2618   1.406       .  A
C2617      C2622   1.414       .  A
C2618      C2619   1.407       .  A
C2618      H2627   1.084       .  S
C2619      C2620   1.414       .  A
C2619      S2623   1.802       .  S
C2620      C2621   1.408       .  A
C2621      C2622   1.408       .  A
C2621      H2628   1.083       .  S
C2622      S2624   1.803       .  S
S2623      H2626   1.407       .  S
S2624      H2625   1.406       .  S
C2629      C2630   1.398       .  A
C2629      C2634   1.417       .  A
C2630      C2631   1.391       .  A
C2630      H2639   1.085       .  S
C2631      C2632   1.413       .  A
C2631      S2635   1.803       .  S
C2632      C2633   1.403       .  A
C2633      C2634   1.408       .  A
C2633      H2640   1.084       .  S
C2634      S2636   1.802       .  S
S2635      H2638   1.404       .  S
S2636      H2637   1.405       .  S
C2641      C2642   1.405       .  A
C2641      C2646   1.418       .  A
C2642      C2643   1.404       .  A
C2642      H2651   1.083       .  S
C2643      C2644   1.412       .  A
C2643      S2647   1.807       .  S
C2644      C2645   1.402       .  A
C2645      C2646   1.401       .  A
C2645      H2652   1.084       .  S
C2646      S2648   1.804       .  S
S2647      H2650   1.407       .  S
S2648      H2649   1.407       .  S
C2653      C2654   1.402       .  A
C2653      C2658   1.418       .  A
C2654      C2655   1.401       .  A
C2654      H2663   1.084       .  S
C2655      C2656   1.416       .  A
C2655      S2659   1.805       .  S
C2656      C2657   1.401       .  A
C2657      C2658   1.403       .  A
C2657      H2664   1.084       .  S
C2658      S2660   1.805       .  S
S2659      H2662   1.407       .  S
S2660      H2661   1.407       .  S
C2665      C2666   1.404       .  A
C2665      C2670   1.410   1_554  A
C2666      C2667   1.404   1_554  A
C2666      H2675   1.083       .  S
C2667      C2668   1.413       .  A
C2667      S2671   1.808   1_556  S
C2668      C2669   1.410       .  A
C2669      C2670   1.409       .  A
C2669      H2676   1.083       .  S
C2670      S2672   1.802       .  S
S2671      H2674   1.407       .  S
S2672      H2673   1.406       .  S
C2677      C2678   1.401       .  A
C2677      C2682   1.419       .  A
C2678      C2679   1.395       .  A
C2678      H2687   1.085       .  S
C2679      C2680   1.417       .  A
C2679      S2683   1.804       .  S
C2680      C2681   1.403       .  A
C2681      C2682   1.409       .  A
C2681      H2688   1.083       .  S
C2682      S2684   1.802       .  S
S2683      H2686   1.406       .  S
S2684      H2685   1.407       .  S
C2689      C2690   1.401       .  A
C2689      C2694   1.419       .  A
C2690      C2691   1.405   1_556  A
C2690      H2699   1.083       .  S
C2691      C2692   1.418       .  A
C2691      S2695   1.808       .  S
C2692      C2693   1.403   1_554  A
C2693      C2694   1.409       .  A
C2693      H2700   1.084       .  S
C2694      S2696   1.799       .  S
S2695      H2698   1.407       .  S
S2696      H2697   1.404       .  S
C2701      C2702   1.408       .  A
C2701      C2706   1.405       .  A
C2702      C2703   1.405       .  A
C2702      H2711   1.084       .  S
C2703      C2704   1.409       .  A
C2703      S2707   1.802       .  S
C2704      C2705   1.407       .  A
C2705      C2706   1.399       .  A
C2705      H2712   1.083       .  S
C2706      S2708   1.808       .  S
S2707      H2710   1.405       .  S
S2708      H2709   1.406       .  S
C2713      C2714   1.404       .  A
C2713      C2718   1.398       .  A
C2714      C2715   1.398       .  A
C2714      H2723   1.084       .  S
C2715      C2716   1.413       .  A
C2715      S2719   1.804       .  S
C2716      C2717   1.405       .  A
C2717      C2718   1.391       .  A
C2717      H2724   1.079       .  S
C2718      S2720   1.801       .  S
S2719      H2722   1.407       .  S
S2720      H2721   1.407       .  S
C2725      C2726   1.405       .  A
C2725      C2730   1.418       .  A
C2726      C2727   1.392       .  A
C2726      H2735   1.079       .  S
C2727      C2728   1.411       .  A
C2727      S2731   1.805       .  S
C2728      C2729   1.402       .  A
C2729      C2730   1.395       .  A
C2729      H2736   1.082       .  S
C2730      S2732   1.806       .  S
S2731      H2734   1.408       .  S
S2732      H2733   1.405       .  S
C2737      C2738   1.416       .  A
C2737      C2742   1.419       .  A
C2738      C2739   1.406       .  A
C2738      H2747   1.079       .  S
C2739      C2740   1.405       .  A
C2739      S2743   1.807       .  S
C2740      C2741   1.411   1_556  A
C2741      C2742   1.417   1_554  A
C2741      H2748   1.084       .  S
C2742      S2744   1.800   1_556  S
S2743      H2746   1.407       .  S
S2744      H2745   1.408   1_554  S
C2749      C2750   1.405       .  A
C2749      C2754   1.418       .  A
C2750      C2751   1.407       .  A
C2750      H2759   1.084       .  S
C2751      C2752   1.419       .  A
C2751      S2755   1.803       .  S
C2752      C2753   1.399       .  A
C2753      C2754   1.397       .  A
C2753      H2760   1.084       .  S
C2754      S2756   1.794       .  S
S2755      H2758   1.407       .  S
S2756      H2757   1.405       .  S
C2761      C2762   1.409       .  A
C2761      C2766   1.413       .  A
C2762      C2763   1.401       .  A
C2762      H2771   1.084       .  S
C2763      C2764   1.408   1_556  A
C2763      S2767   1.803       .  S
C2764      C2765   1.401       .  A
C2765      C2766   1.396   1_554  A
C2765      H2772   1.082       .  S
C2766      S2768   1.801       .  S
S2767      H2770   1.406       .  S
S2768      H2769   1.407       .  S
C2773      C2774   1.420       .  A
C2773      C2778   1.421       .  A
C2774      C2775   1.433       .  A
C2774      H2783   1.083       .  S
C2775      C2776   1.424       .  A
C2775      S2779   1.798       .  S
C2776      C2777   1.405       .  A
C2777      C2778   1.391       .  A
C2777      H2784   1.081       .  S
C2778      S2780   1.808       .  S
S2779      H2782   1.406       .  S
S2780      H2781   1.408       .  S
C2785      C2786   1.406       .  A
C2785      C2790   1.429       .  A
C2786      C2787   1.410       .  A
C2786      H2795   1.083       .  S
C2787      C2788   1.420       .  A
C2787      S2791   1.801       .  S
C2788      C2789   1.396       .  A
C2789      C2790   1.405       .  A
C2789      H2796   1.083       .  S
C2790      S2792   1.804       .  S
S2791      H2794   1.407       .  S
S2792      H2793   1.407       .  S
C2797      C2798   1.403       .  A
C2797      C2802   1.412       .  A
C2798      C2799   1.407       .  A
C2798      H2807   1.084       .  S
C2799      C2800   1.416   1_545  A
C2799      S2803   1.803       .  S
C2800      C2801   1.400       .  A
C2801      C2802   1.393   1_565  A
C2801      H2808   1.084       .  S
C2802      S2804   1.805       .  S
S2803      H2806   1.406   1_545  S
S2804      H2805   1.407       .  S
C2809      C2810   1.407   1_565  A
C2809      C2814   1.413       .  A
C2810      C2811   1.406       .  A
C2810      H2819   1.084       .  S
C2811      C2812   1.413       .  A
C2811      S2815   1.803       .  S
C2812      C2813   1.407       .  A
C2813      C2814   1.408   1_545  A
C2813      H2820   1.084       .  S
C2814      S2816   1.803       .  S
S2815      H2818   1.407       .  S
S2816      H2817   1.406       .  S
C2821      C2822   1.409       .  A
C2821      C2826   1.413       .  A
C2822      C2823   1.400       .  A
C2822      H2831   1.084       .  S
C2823      C2824   1.414       .  A
C2823      S2827   1.800       .  S
C2824      C2825   1.409       .  A
C2825      C2826   1.403       .  A
C2825      H2832   1.084       .  S
C2826      S2828   1.799   1_554  S
S2827      H2830   1.407       .  S
S2828      H2829   1.407       .  S
C2833      C2834   1.392       .  A
C2833      C2838   1.411       .  A
C2834      C2835   1.388   1_655  A
C2834      H2843   1.086       .  S
C2835      C2836   1.423       .  A
C2835      S2839   1.797       .  S
C2836      C2837   1.412   1_455  A
C2837      C2838   1.411       .  A
C2837      H2844   1.083       .  S
C2838      S2840   1.802       .  S
S2839      H2842   1.408       .  S
S2840      H2841   1.406       .  S
C2845      C2846   1.416   1_455  A
C2845      C2850   1.422       .  A
C2846      C2847   1.400       .  A
C2846      H2855   1.081       .  S
C2847      C2848   1.410       .  A
C2847      S2851   1.811       .  S
C2848      C2849   1.412       .  A
C2849      C2850   1.422   1_655  A
C2849      H2856   1.083       .  S
C2850      S2852   1.797       .  S
S2851      H2854   1.408       .  S
S2852      H2853   1.406       .  S
C2857      C2858   1.402   1_564  A
C2857      C2862   1.417       .  A
C2858      C2859   1.401       .  A
C2858      H2867   1.082       .  S
C2859      C2860   1.421   1_445  A
C2859      S2863   1.813       .  S
C2860      C2861   1.404       .  A
C2861      C2862   1.396   1_656  A
C2861      H2868   1.080       .  S
C2862      S2864   1.809   1_455  S
S2863      H2866   1.406       .  S
S2864      H2865   1.409   1_655  S
C2869      C2870   1.408       .  A
C2869      C2874   1.411       .  A
C2870      C2871   1.411       .  A
C2870      H2879   1.084       .  S
C2871      C2872   1.415       .  A
C2871      S2875   1.803       .  S
C2872      C2873   1.400       .  A
C2873      C2874   1.389       .  A
C2873      H2880   1.085       .  S
C2874      S2876   1.803       .  S
S2875      H2878   1.403       .  S
S2876      H2877   1.406       .  S
C2881      C2882   1.409       .  A
C2881      C2886   1.405       .  A
C2882      C2883   1.410   1_455  A
C2882      H2891   1.084       .  S
C2883      C2884   1.418   1_655  A
C2883      S2887   1.798       .  S
C2884      C2885   1.418       .  A
C2885      C2886   1.402       .  A
C2885      H2892   1.083       .  S
C2886      S2888   1.803       .  S
S2887      H2890   1.406       .  S
S2888      H2889   1.406       .  S
C2893      C2894   1.403       .  A
C2893      C2898   1.403       .  A
C2894      C2895   1.402       .  A
C2894      H2903   1.084       .  S
C2895      C2896   1.418       .  A
C2895      S2899   1.801       .  S
C2896      C2897   1.417       .  A
C2897      C2898   1.397       .  A
C2897      H2904   1.083       .  S
C2898      S2900   1.805   1_455  S
S2899      H2902   1.404       .  S
S2900      H2901   1.404       .  S
C2905      C2906   1.410   1_455  A
C2905      C2910   1.408       .  A
C2906      C2907   1.396   1_565  A
C2906      H2915   1.081       .  S
C2907      C2908   1.404   1_655  A
C2907      S2911   1.802       .  S
C2908      C2909   1.406   1_545  A
C2909      C2910   1.390       .  A
C2909      H2916   1.083       .  S
C2910      S2912   1.804       .  S
S2911      H2914   1.407       .  S
S2912      H2913   1.406       .  S
C2917      C2918   1.407       .  A
C2917      C2922   1.415       .  A
C2918      C2919   1.408       .  A
C2918      H2927   1.084       .  S
C2919      C2920   1.412       .  A
C2919      S2923   1.802   1_565  S
C2920      C2921   1.402       .  A
C2921      C2922   1.399       .  A
C2921      H2928   1.085       .  S
C2922      S2924   1.805       .  S
S2923      H2926   1.404       .  S
S2924      H2925   1.407       .  S
C2929      C2930   1.405       .  A
C2929      C2934   1.408       .  A
C2930      C2931   1.389       .  A
C2930      H2939   1.084       .  S
C2931      C2932   1.413       .  A
C2931      S2935   1.803       .  S
C2932      C2933   1.414       .  A
C2933      C2934   1.407       .  A
C2933      H2940   1.084       .  S
C2934      S2936   1.797   1_565  S
S2935      H2938   1.408       .  S
S2936      H2937   1.405       .  S
C2941      C2942   1.406       .  A
C2941      C2946   1.414       .  A
C2942      C2943   1.404       .  A
C2942      H2951   1.084       .  S
C2943      C2944   1.413       .  A
C2943      S2947   1.798       .  S
C2944      C2945   1.405       .  A
C2945      C2946   1.403       .  A
C2945      H2952   1.084       .  S
C2946      S2948   1.798   1_554  S
S2947      H2950   1.406       .  S
S2948      H2949   1.405       .  S
C2953      C2954   1.400       .  A
C2953      C2958   1.415   1_565  A
C2954      C2955   1.408   1_565  A
C2954      H2963   1.084       .  S
C2955      C2956   1.419       .  A
C2955      S2959   1.793       .  S
C2956      C2957   1.402       .  A
C2957      C2958   1.397       .  A
C2957      H2964   1.084       .  S
C2958      S2960   1.799       .  S
S2959      H2962   1.406       .  S
S2960      H2961   1.404       .  S
C2965      C2966   1.412   1_565  A
C2965      C2970   1.405       .  A
C2966      C2967   1.401       .  A
C2966      H2975   1.079       .  S
C2967      C2968   1.411       .  A
C2967      S2971   1.800       .  S
C2968      C2969   1.419       .  A
C2969      C2970   1.401   1_545  A
C2969      H2976   1.084   1_545  S
C2970      S2972   1.798       .  S
S2971      H2974   1.407       .  S
S2972      H2973   1.407       .  S
C2977      C2978   1.407       .  A
C2977      C2982   1.409       .  A
C2978      C2979   1.414       .  A
C2978      H2987   1.083       .  S
C2979      C2980   1.419       .  A
C2979      S2983   1.799       .  S
C2980      C2981   1.407       .  A
C2981      C2982   1.391       .  A
C2981      H2988   1.083       .  S
C2982      S2984   1.800       .  S
S2983      H2986   1.407       .  S
S2984      H2985   1.404       .  S
C2989      C2990   1.405       .  A
C2989      C2994   1.411       .  A
C2990      C2991   1.388       .  A
C2990      H2999   1.084       .  S
C2991      C2992   1.407       .  A
C2991      S2995   1.808       .  S
C2992      C2993   1.408       .  A
C2993      C2994   1.408       .  A
C2993      H3000   1.084       .  S
C2994      S2996   1.801       .  S
S2995      H2998   1.401       .  S
S2996      H2997   1.405       .  S
C3001      C3002   1.416       .  A
C3001      C3006   1.426       .  A
C3002      C3003   1.416       .  A
C3002      H3011   1.083       .  S
C3003      C3004   1.414       .  A
C3003      S3007   1.800       .  S
C3004      C3005   1.399       .  A
C3005      C3006   1.392       .  A
C3005      H3012   1.082       .  S
C3006      S3008   1.806       .  S
S3007      H3010   1.406       .  S
S3008      H3009   1.407       .  S
C3013      C3014   1.401       .  A
C3013      C3018   1.403   1_545  A
C3014      C3015   1.399   1_554  A
C3014      H3023   1.084       .  S
C3015      C3016   1.411       .  A
C3015      S3019   1.806       .  S
C3016      C3017   1.404   1_545  A
C3017      C3018   1.390   1_556  A
C3017      H3024   1.080       .  S
C3018      S3020   1.801       .  S
S3019      H3022   1.407       .  S
S3020      H3021   1.406       .  S
C3025      C3026   1.410       .  A
C3025      C3030   1.408       .  A
C3026      C3027   1.411       .  A
C3026      H3035   1.084       .  S
C3027      C3028   1.418       .  A
C3027      S3031   1.799       .  S
C3028      C3029   1.415       .  A
C3029      C3030   1.396       .  A
C3029      H3036   1.082       .  S
C3030      S3032   1.801       .  S
S3031      H3034   1.408       .  S
S3032      H3033   1.406       .  S
C3037      C3038   1.419       .  A
C3037      C3042   1.419       .  A
C3038      C3039   1.405       .  A
C3038      H3047   1.082       .  S
C3039      C3040   1.406       .  A
C3039      S3043   1.803       .  S
C3040      C3041   1.410       .  A
C3041      C3042   1.413       .  A
C3041      H3048   1.084       .  S
C3042      S3044   1.799       .  S
S3043      H3046   1.407       .  S
S3044      H3045   1.407       .  S
C3049      C3050   1.403       .  A
C3049      C3054   1.419       .  A
C3050      C3051   1.406       .  A
C3050      H3059   1.084       .  S
C3051      C3052   1.418       .  A
C3051      S3055   1.803       .  S
C3052      C3053   1.399       .  A
C3053      C3054   1.400       .  A
C3053      H3060   1.083       .  S
C3054      S3056   1.809       .  S
S3055      H3058   1.407       .  S
S3056      H3057   1.407       .  S
C3061      C3062   1.410   1_565  A
C3061      C3066   1.411       .  A
C3062      C3063   1.393       .  A
C3062      H3071   1.081       .  S
C3063      C3064   1.402       .  A
C3063      S3067   1.804       .  S
C3064      C3065   1.402       .  A
C3065      C3066   1.390   1_545  A
C3065      H3072   1.084       .  S
C3066      S3068   1.804       .  S
S3067      H3070   1.407       .  S
S3068      H3069   1.407       .  S
C3073      C3074   1.402       .  A
C3073      C3078   1.416   1_565  A
C3074      C3075   1.411       .  A
C3074      H3083   1.084       .  S
C3075      C3076   1.420   1_565  A
C3075      S3079   1.798       .  S
C3076      C3077   1.402       .  A
C3077      C3078   1.408       .  A
C3077      H3084   1.083       .  S
C3078      S3080   1.803       .  S
S3079      H3082   1.405   1_565  S
S3080      H3081   1.407       .  S
C3085      C3086   1.416   1_545  A
C3085      C3090   1.408       .  A
C3086      C3087   1.401       .  A
C3086      H3095   1.080       .  S
C3087      C3088   1.405       .  A
C3087      S3091   1.802       .  S
C3088      C3089   1.410       .  A
C3089      C3090   1.395   1_565  A
C3089      H3096   1.079       .  S
C3090      S3092   1.803       .  S
S3091      H3094   1.407       .  S
S3092      H3093   1.408       .  S
C3097      C3098   1.404       .  A
C3097      C3102   1.419       .  A
C3098      C3099   1.404       .  A
C3098      H3107   1.084       .  S
C3099      C3100   1.419       .  A
C3099      S3103   1.805       .  S
C3100      C3101   1.407       .  A
C3101      C3102   1.411       .  A
C3101      H3108   1.084       .  S
C3102      S3104   1.803       .  S
S3103      H3106   1.407       .  S
S3104      H3105   1.407       .  S
C3109      C3110   1.414       .  A
C3109      C3114   1.414       .  A
C3110      C3111   1.404       .  A
C3110      H3119   1.084       .  S
C3111      C3112   1.412       .  A
C3111      S3115   1.799       .  S
C3112      C3113   1.413       .  A
C3113      C3114   1.402       .  A
C3113      H3120   1.084       .  S
C3114      S3116   1.800       .  S
S3115      H3118   1.408   1_556  S
S3116      H3117   1.407       .  S
C3121      C3122   1.423       .  A
C3121      C3126   1.424       .  A
C3122      C3123   1.440       .  A
C3122      H3131   1.083       .  S
C3123      C3124   1.427       .  A
C3123      S3127   1.798       .  S
C3124      C3125   1.403       .  A
C3125      C3126   1.392       .  A
C3125      H3132   1.078       .  S
C3126      S3128   1.810       .  S
S3127      H3130   1.406       .  S
S3128      H3129   1.408       .  S
C3133      C3134   1.409       .  A
C3133      C3138   1.410       .  A
C3134      C3135   1.405       .  A
C3134      H3143   1.084       .  S
C3135      C3136   1.411   1_556  A
C3135      S3139   1.803       .  S
C3136      C3137   1.402       .  A
C3137      C3138   1.398   1_554  A
C3137      H3144   1.083       .  S
C3138      S3140   1.803       .  S
S3139      H3142   1.406   1_556  S
S3140      H3141   1.405       .  S
C3145      C3146   1.410       .  A
C3145      C3150   1.421       .  A
C3146      C3147   1.399       .  A
C3146      H3155   1.083       .  S
C3147      C3148   1.410       .  A
C3147      S3151   1.798       .  S
C3148      C3149   1.401       .  A
C3149      C3150   1.396       .  A
C3149      H3156   1.085       .  S
C3150      S3152   1.799       .  S
S3151      H3154   1.407       .  S
S3152      H3153   1.408       .  S
C3157      C3158   1.394       .  A
C3157      C3162   1.415       .  A
C3158      C3159   1.398       .  A
C3158      H3167   1.084       .  S
C3159      C3160   1.416       .  A
C3159      S3163   1.796       .  S
C3160      C3161   1.400       .  A
C3161      C3162   1.405       .  A
C3161      H3168   1.083       .  S
C3162      S3164   1.799       .  S
S3163      H3166   1.406       .  S
S3164      H3165   1.404       .  S
C3169      C3170   1.399       .  A
C3169      C3174   1.418       .  A
C3170      C3171   1.404   1_556  A
C3170      H3179   1.084       .  S
C3171      C3172   1.420       .  A
C3171      S3175   1.803       .  S
C3172      C3173   1.401   1_554  A
C3173      C3174   1.405       .  A
C3173      H3180   1.084       .  S
C3174      S3176   1.799       .  S
S3175      H3178   1.407       .  S
S3176      H3177   1.401       .  S
C3181      C3182   1.388       .  A
C3181      C3186   1.419       .  A
C3182      C3183   1.388       .  A
C3182      H3191   1.084       .  S
C3183      C3184   1.426       .  A
C3183      S3187   1.801       .  S
C3184      C3185   1.394       .  A
C3185      C3186   1.391       .  A
C3185      H3192   1.083       .  S
C3186      S3188   1.798       .  S
S3187      H3190   1.407       .  S
S3188      H3189   1.407       .  S
C3193      C3194   1.409       .  A
C3193      C3198   1.411       .  A
C3194      C3195   1.400       .  A
C3194      H3203   1.084       .  S
C3195      C3196   1.416       .  A
C3195      S3199   1.800       .  S
C3196      C3197   1.413       .  A
C3197      C3198   1.399       .  A
C3197      H3204   1.084       .  S
C3198      S3200   1.799       .  S
S3199      H3202   1.408       .  S
S3200      H3201   1.407       .  S
C3205      C3206   1.412       .  A
C3205      C3210   1.405       .  A
C3206      C3207   1.410       .  A
C3206      H3215   1.084       .  S
C3207      C3208   1.411       .  A
C3207      S3211   1.801       .  S
C3208      C3209   1.407       .  A
C3209      C3210   1.393       .  A
C3209      H3216   1.079       .  S
C3210      S3212   1.804       .  S
S3211      H3214   1.406       .  S
S3212      H3213   1.405       .  S
C3217      C3218   1.394       .  A
C3217      C3222   1.417       .  A
C3218      C3219   1.391       .  A
C3218      H3227   1.080       .  S
C3219      C3220   1.417   1_556  A
C3219      S3223   1.807       .  S
C3220      C3221   1.413       .  A
C3221      C3222   1.420   1_554  A
C3221      H3228   1.083       .  S
C3222      S3224   1.801       .  S
S3223      H3226   1.408       .  S
S3224      H3225   1.405       .  S
C3229      C3230   1.409       .  A
C3229      C3234   1.417       .  A
C3230      C3231   1.394       .  A
C3230      H3239   1.083       .  S
C3231      C3232   1.398       .  A
C3231      S3235   1.794       .  S
C3232      C3233   1.399       .  A
C3233      C3234   1.395       .  A
C3233      H3240   1.084       .  S
C3234      S3236   1.803       .  S
S3235      H3238   1.409       .  S
S3236      H3237   1.405       .  S
C3241      C3242   1.407       .  A
C3241      C3246   1.409       .  A
C3242      C3243   1.407       .  A
C3242      H3251   1.084       .  S
C3243      C3244   1.410   1_556  A
C3243      S3247   1.802       .  S
C3244      C3245   1.404       .  A
C3245      C3246   1.396   1_554  A
C3245      H3252   1.085       .  S
C3246      S3248   1.805   1_556  S
S3247      H3250   1.406       .  S
S3248      H3249   1.407   1_554  S
C3253      C3254   1.406       .  A
C3253      C3258   1.413       .  A
C3254      C3255   1.410       .  A
C3254      H3263   1.084       .  S
C3255      C3256   1.417       .  A
C3255      S3259   1.803       .  S
C3256      C3257   1.400       .  A
C3257      C3258   1.399       .  A
C3257      H3264   1.083       .  S
C3258      S3260   1.803       .  S
S3259      H3262   1.406       .  S
S3260      H3261   1.406       .  S
