geometry optimzed in LAMMPS
_audit_creation_date              2020-12-01 
_audit_creation_method            'lammps2cif' 
_symmetry_space_group_name_H-M    'P1' 
_symmetry_Int_Tables_number       1 
_symmetry_cell_setting            triclinic 
loop_ 
_symmetry_equiv_pos_as_xyz 
  x,y,z 
_cell_length_a                    73.68087131 
_cell_length_b                    73.43132992277606 
_cell_length_c                    30.755901733175673 
_cell_angle_alpha                 89.89969270185975 
_cell_angle_beta                  89.90325947687117 
_cell_angle_gamma                 89.9690509051574 
loop_ 
_atom_site_label 
_atom_site_type_symbol 
_atom_site_fract_x 
_atom_site_fract_y 
_atom_site_fract_z 
_atom_site_charge 
O1          O  0.37477482  0.01957984  0.51660778    -0.85700
O2          O  0.36984263  0.98323914  0.51204437    -0.82800
C3          C  0.36609885  0.96757350  0.49881811     0.97700
O4          O  0.35759384  0.96558380  0.46325555    -0.82800
O5          O  0.32587918  0.98741060  0.46119298    -0.85400
C6          C  0.31591308  0.00139471  0.45924446     1.02300
O7          O  0.32226473  0.01566828  0.44202925    -0.78200
O8          O  0.34569536  0.02451622  0.50835140    -0.78400
C9          C  0.35936959  0.02347053  0.53279228     1.02200
O10         O  0.39115138  0.01849198  0.43043970    -0.85700
O11         O  0.38866941  0.98070766  0.43005836    -0.82800
C12         C  0.38258689  0.97465032  0.39422986     0.97800
O13         O  0.36720108  0.97955135  0.38076644    -0.82800
O14         O  0.33611820  0.99941967  0.37287353    -0.85400
C15         C  0.34235602  0.01414071  0.35666308     1.02200
O16         O  0.34971561  0.02581971  0.38096500    -0.78200
O17         O  0.37118169  0.03948850  0.44606714    -0.78400
C18         C  0.38680034  0.03505780  0.43231980     1.02200
Cr19       Cr  0.37970303  0.00077021  0.47021324     1.93700
Cr20       Cr  0.34718475  0.98442267  0.42162742     1.93200
Cr21       Cr  0.34793259  0.02491942  0.44445165     1.39100
O22         O  0.35842237  0.00328859  0.44494220    -1.23500
O23         O  0.37230935  0.02111252  0.01520421    -0.85700
O24         O  0.36940577  0.98462202  0.01315822    -0.82800
C25         C  0.36589009  0.96859178  0.00205108     0.97700
O26         O  0.35826485  0.96565284  0.96569780    -0.82800
O27         O  0.32542309  0.98468508  0.96100896    -0.85400
C28         C  0.31448961  0.99785966  0.95910771     1.02300
O29         O  0.31968800  0.01289037  0.94305527    -0.78200
O30         O  0.34289357  0.02385160  0.00793802    -0.78400
C31         C  0.35676076  0.02388843  0.03188410     1.02200
O32         O  0.38836927  0.02000018  0.92875631    -0.85700
O33         O  0.38819635  0.98181697  0.93170221    -0.82800
C34         C  0.38242268  0.97540816  0.89595838     0.97800
O35         O  0.36729269  0.98041494  0.88174756    -0.82800
O36         O  0.33484124  0.99717268  0.87324009    -0.85400
C37         C  0.34039864  0.01196569  0.85623059     1.02200
O38         O  0.34638834  0.02445035  0.88036543    -0.78200
O39         O  0.36712959  0.03980362  0.94388441    -0.78400
C40         C  0.38291912  0.03627974  0.92967116     1.02200
Cr41       Cr  0.37816609  0.00206933  0.97006624     1.93700
Cr42       Cr  0.34693474  0.98336525  0.92231695     1.93200
Cr43       Cr  0.34477458  0.02388896  0.94396648     1.39100
O44         O  0.35665682  0.00303499  0.94530096    -1.23500
O45         O  0.51188766  0.85576217  0.25518222    -0.85700
O46         O  0.50249547  0.83403461  0.18584669    -0.82800
C47         C  0.48800566  0.82734917  0.20119880     0.97700
O48         O  0.47424743  0.83743660  0.20564180    -0.82800
O49         O  0.45277092  0.86915947  0.21459903    -0.85400
C50         C  0.45497302  0.87660395  0.25152644     1.02300
O51         O  0.47065769  0.88047565  0.26423227    -0.78200
O52         O  0.50699950  0.88460209  0.26770767    -0.78400
C53         C  0.51058819  0.86877673  0.28181809     1.02200
O54         O  0.52648125  0.88287916  0.19615831    -0.85700
O55         O  0.51215069  0.86339367  0.12813443    -0.82800
C56         C  0.49988014  0.85757901  0.10315751     0.97800
O57         O  0.48566733  0.85023724  0.11904857    -0.82800
O58         O  0.46635491  0.88115801  0.13311037    -0.85400
C59         C  0.46190434  0.89625942  0.14910522     1.02200
O60         O  0.46810331  0.90131836  0.18556258    -0.78200
O61         O  0.50558385  0.90336051  0.18458755    -0.78400
C62         C  0.52206172  0.89883469  0.18451380     1.02200
Cr63       Cr  0.51179630  0.85971958  0.19155171     1.93700
Cr64       Cr  0.47119371  0.85994200  0.17024144     1.93200
Cr65       Cr  0.48809849  0.89102727  0.22322173     1.39100
O66         O  0.49025089  0.87032421  0.19473970    -1.23500
O67         O  0.51301702  0.85887069  0.75657288    -0.85700
O68         O  0.50236845  0.83371334  0.69697701    -0.82800
C69         C  0.48729703  0.82914339  0.71357433     0.97700
O70         O  0.47392040  0.83980939  0.71192489    -0.82800
O71         O  0.45476672  0.87252433  0.70876700    -0.85400
C72         C  0.45704942  0.88117163  0.74407034     1.02300
O73         O  0.47276814  0.88551811  0.75581626    -0.78200
O74         O  0.50935948  0.88844383  0.75952413    -0.78400
C75         C  0.51248190  0.87334880  0.77840146     1.02200
O76         O  0.52893956  0.88121336  0.68934410    -0.85700
O77         O  0.51399087  0.85815707  0.62865787    -0.82800
C78         C  0.50176784  0.85091275  0.60573740     0.97800
O79         O  0.48702303  0.84594813  0.62361546    -0.82800
O80         O  0.47040876  0.87891965  0.62452256    -0.85400
C81         C  0.46561746  0.89469356  0.63510225     1.02200
O82         O  0.47129542  0.90146077  0.67054962    -0.78200
O83         O  0.50898130  0.90175101  0.67000082    -0.78400
C84         C  0.52518038  0.89637714  0.67184538     1.02200
Cr85       Cr  0.51319945  0.85876448  0.69267838     1.93700
Cr86       Cr  0.47290862  0.85989334  0.66906541     1.93200
Cr87       Cr  0.49084470  0.89277643  0.71221541     1.39100
O88         O  0.49224123  0.87047703  0.69139350    -1.23500
O89         O  0.49666092  0.13934642  0.25658569    -0.85700
O90         O  0.53257975  0.14491591  0.26176130    -0.82800
C91         C  0.54801148  0.14965689  0.27443140     0.97700
O92         O  0.54983632  0.15752954  0.31094420    -0.82800
O93         O  0.52782854  0.18862576  0.31385910    -0.85400
C94         C  0.51377425  0.19837107  0.31468247     1.02300
O95         O  0.49927560  0.19203689  0.33076832    -0.78200
O96         O  0.49126946  0.16842814  0.26475284    -0.78400
C97         C  0.49309216  0.15483107  0.24014290     1.02200
O98         O  0.49773813  0.12303948  0.34366469    -0.85700
O99         O  0.53547141  0.12625738  0.34370889    -0.82800
C100        C  0.54109729  0.13254458  0.37969352     0.97800
O101        O  0.53522437  0.14744846  0.39369772    -0.82800
O102        O  0.51531554  0.17830525  0.40098438    -0.85400
C103        C  0.50068355  0.17188490  0.41690450     1.02200
O104        O  0.48926356  0.16440800  0.39213663    -0.78200
O105        O  0.47655610  0.14262022  0.32638576    -0.78400
C106        C  0.48121496  0.12741102  0.34232344     1.02200
Cr107      Cr  0.51526889  0.13472457  0.30353953     1.93700
Cr108      Cr  0.53070434  0.16742151  0.35286162     1.93200
Cr109      Cr  0.49050768  0.16618279  0.32850686     1.39100
O110        O  0.51224766  0.15603642  0.32860544    -1.23500
O111        O  0.48939370  0.14220266  0.75604210    -0.85700
O112        O  0.52588689  0.14474196  0.75546581    -0.82800
C113        C  0.54220166  0.14697095  0.76563612     0.97700
O114        O  0.54585001  0.15451167  0.80171649    -0.82800
O115        O  0.52703789  0.18806724  0.80842129    -0.85400
C116        C  0.51421087  0.19921903  0.81408052     1.02300
O117        O  0.49944526  0.19378170  0.83074256    -0.78200
O118        O  0.48701681  0.17150940  0.76606717    -0.78400
C119        C  0.48651786  0.15805367  0.74079505     1.02200
O120        O  0.49161031  0.12506300  0.84141365    -0.85700
O121        O  0.52941617  0.12482744  0.83587244    -0.82800
C122        C  0.53626919  0.13028892  0.87144088     0.97800
O123        O  0.53223346  0.14570936  0.88604055    -0.82800
O124        O  0.51630498  0.17838796  0.89696580    -0.85400
C125        C  0.50183319  0.17300840  0.91564334     1.02200
O126        O  0.48882375  0.16679830  0.89354414    -0.78200
O127        O  0.47185151  0.14676353  0.82983873    -0.78400
C128        C  0.47552260  0.13084029  0.84319648     1.02200
Cr129      Cr  0.50896745  0.13555604  0.79928967     1.93700
Cr130      Cr  0.52891875  0.16623928  0.84634547     1.93200
Cr131      Cr  0.48810435  0.16891146  0.82974885     1.39100
O132        O  0.50871020  0.15681754  0.82544696    -1.23500
O133        O  0.65413400  0.00218497  0.00674244    -0.85700
O134        O  0.67775630  0.01103630  0.07214214    -0.82800
C135        C  0.68430015  0.02518699  0.05458325     0.97700
O136        O  0.67462543  0.03933919  0.05180750    -0.82800
O137        O  0.64335993  0.06158485  0.04832731    -0.85400
C138        C  0.63506911  0.05943832  0.01259328     1.02300
O139        O  0.63066477  0.04379204  0.00047925    -0.78200
O140        O  0.62518779  0.00757924  0.99764100    -0.78400
C141        C  0.64059120  0.00327620  0.98197671     1.02200
O142        O  0.62848105  0.98824017  0.06909504    -0.85700
O143        O  0.64995060  0.00203792  0.13391766    -0.82800
C144        C  0.65763841  0.01381416  0.15725850     0.97800
O145        O  0.66416539  0.02822195  0.14021340    -0.82800
O146        O  0.63332209  0.04812605  0.13156450    -0.85400
C147        C  0.61835173  0.05390113  0.11765885     1.02200
O148        O  0.61193083  0.04761972  0.08232457    -0.78200
O149        O  0.60866108  0.00951925  0.08356388    -0.78400
C150        C  0.61289045  0.99288186  0.08241300     1.02200
Cr151      Cr  0.65187566  0.00233710  0.07035214     1.93700
Cr152      Cr  0.65331388  0.04293304  0.09098598     1.93200
Cr153      Cr  0.62049886  0.02684571  0.04318140     1.39100
O154        O  0.64177379  0.02412397  0.06852308    -1.23500
O155        O  0.65746222  0.00260270  0.50778330    -0.85700
O156        O  0.67970399  0.01145707  0.57560866    -0.82800
C157        C  0.68585994  0.02595273  0.55900001     0.97700
O158        O  0.67601754  0.03997182  0.55767499    -0.82800
O159        O  0.64487747  0.06138434  0.55280317    -0.85400
C160        C  0.63792384  0.05942517  0.51545175     1.02300
O161        O  0.63376760  0.04375961  0.50248232    -0.78200
O162        O  0.62861988  0.00739115  0.49703215    -0.78400
C163        C  0.64429293  0.00389871  0.48195492     1.02200
O164        O  0.63123701  0.98758007  0.56757324    -0.85700
O165        O  0.65144496  0.00109437  0.63479349    -0.82800
C166        C  0.65868304  0.01267728  0.65945776     0.97800
O167        O  0.66493184  0.02747019  0.64388736    -0.82800
O168        O  0.63344151  0.04694422  0.63436408    -0.85400
C169        C  0.61837013  0.05173331  0.61880966     1.02200
O170        O  0.61343424  0.04611130  0.58166733    -0.78200
O171        O  0.61080591  0.00834768  0.58163101    -0.78400
C172        C  0.61570738  0.99189710  0.58184451     1.02200
Cr173      Cr  0.65425054  0.00209472  0.57138702     1.93700
Cr174      Cr  0.65428724  0.04252750  0.59525398     1.93200
Cr175      Cr  0.62297281  0.02614824  0.54284176     1.39100
O176        O  0.64370495  0.02366124  0.57027425    -1.23500
O177        O  0.13055596  0.99704652  0.99328588    -0.85700
O178        O  0.12464342  0.96442844  0.03109398    -0.82800
C179        C  0.13926578  0.95612808  0.02339175     0.97700
O180        O  0.15383056  0.96068555  0.04203153    -0.82800
O181        O  0.17805156  0.98222999  0.08864706    -0.85400
C182        C  0.18428973  0.99455089  0.06408731     1.02300
O183        O  0.17425437  0.00730773  0.05120230    -0.78200
O184        O  0.14376061  0.02200336  0.01691411    -0.78400
C185        C  0.13954478  0.01129943  0.98603902     1.02200
O186        O  0.10988813  0.01480422  0.06067947    -0.85700
O187        O  0.10819211  0.98121307  0.10396389    -0.82800
C188        C  0.11345372  0.96621822  0.11986590     0.97800
O189        O  0.12960125  0.96079801  0.11467296    -0.82800
O190        O  0.15129079  0.98469546  0.15714736    -0.85400
C191        C  0.15690501  0.00021045  0.16810733     1.02200
O192        O  0.16083305  0.01200989  0.13933872    -0.78200
O193        O  0.12945470  0.02562596  0.10677704    -0.78400
C194        C  0.11367522  0.02551579  0.09136508     1.02200
Cr195      Cr  0.12001306  0.98985671  0.04949519     1.93700
Cr196      Cr  0.15245100  0.97376216  0.09879132     1.93200
Cr197      Cr  0.15120176  0.01501476  0.07828850     1.39100
O198        O  0.14134181  0.99292858  0.07553227    -1.23500
O199        O  0.12618347  0.01775215  0.50436894    -0.85700
O200        O  0.13424922  0.98226023  0.50032010    -0.82800
C201        C  0.13527468  0.96579188  0.50909377     0.97700
O202        O  0.14322498  0.96133025  0.54427360    -0.82800
O203        O  0.17484980  0.98356355  0.55420389    -0.85400
C204        C  0.18457005  0.99751043  0.55963695     1.02300
O205        O  0.17810756  0.01121937  0.57925010    -0.78200
O206        O  0.15504270  0.02213261  0.51404826    -0.78400
C207        C  0.14162737  0.02164973  0.48874461     1.02200
O208        O  0.10864930  0.01164250  0.58686390    -0.85700
O209        O  0.11276316  0.97423182  0.57849855    -0.82800
C210        C  0.11852205  0.96710290  0.61362487     0.97800
O211        O  0.13321883  0.97229313  0.62991670    -0.82800
O212        O  0.16360318  0.99185549  0.64484257    -0.85400
C213        C  0.15678173  0.00584260  0.66355022     1.02200
O214        O  0.15001291  0.01861859  0.64147728    -0.78200
O215        O  0.12834607  0.03373883  0.57918624    -0.78400
C216        C  0.11272281  0.02819368  0.59098116     1.02200
Cr217      Cr  0.12164157  0.99654111  0.54445664     1.93700
Cr218      Cr  0.15337894  0.97870181  0.59159353     1.93200
Cr219      Cr  0.15222885  0.02011703  0.57805088     1.39100
O220        O  0.14217014  0.99846921  0.57269160    -1.23500
O221        O  0.98483655  0.84990764  0.26618871    -0.85700
O222        O  0.99471569  0.82848784  0.33602083    -0.82800
C223        C  0.00848043  0.82137050  0.31843004     0.97700
O224        O  0.02247905  0.83098615  0.31229702    -0.82800
O225        O  0.04429840  0.86219324  0.29748037    -0.85400
C226        C  0.04075953  0.86937720  0.26082771     1.02300
O227        O  0.02474093  0.87336454  0.25164277    -0.78200
O228        O  0.98897395  0.87873125  0.25305491    -0.78400
C229        C  0.98645771  0.86269875  0.23907525     1.02200
O230        O  0.97151638  0.87756439  0.32629988    -0.85700
O231        O  0.98685703  0.85817272  0.39280653    -0.82800
C232        C  0.99942241  0.85179520  0.41614908     0.97800
O233        O  0.01361983  0.84496460  0.39886303    -0.82800
O234        O  0.03367975  0.87528839  0.38059616    -0.85400
C235        C  0.03816567  0.89014242  0.36305409     1.02200
O236        O  0.03063481  0.89494686  0.32777306    -0.78200
O237        O  0.99289339  0.89793210  0.33494824    -0.78400
C238        C  0.97640049  0.89346618  0.33713698     1.02200
Cr239      Cr  0.98587182  0.85424105  0.32978757     1.93700
Cr240      Cr  0.02701601  0.85384773  0.34547988     1.93200
Cr241      Cr  0.00915381  0.88497418  0.29429884     1.39100
O242        O  0.00745768  0.86451928  0.32389569    -1.23500
O243        O  0.99467044  0.85490549  0.76456999    -0.85700
O244        O  0.00236021  0.83055898  0.82947423    -0.82800
C245        C  0.01674599  0.82356823  0.81456443     0.97700
O246        O  0.03109340  0.83285982  0.81256198    -0.82800
O247        O  0.05356241  0.86359026  0.80597151    -0.85400
C248        C  0.05125568  0.87184740  0.76997068     1.02300
O249        O  0.03593344  0.87808308  0.76028993    -0.78200
O250        O  0.00009328  0.88406010  0.75765729    -0.78400
C251        C  0.99674671  0.86868664  0.74063909     1.02200
O252        O  0.98078719  0.88050016  0.82787608    -0.85700
O253        O  0.99385319  0.85817953  0.89175136    -0.82800
C254        C  0.00508077  0.85002133  0.91568861     0.97800
O255        O  0.01993308  0.84398879  0.89986499    -0.82800
O256        O  0.04087560  0.87426628  0.89044691    -0.85400
C257        C  0.04650422  0.88934084  0.87661110     1.02200
O258        O  0.04019415  0.89598389  0.84166733    -0.78200
O259        O  0.00221631  0.89978633  0.84464557    -0.78400
C260        C  0.98558361  0.89579230  0.84300249     1.02200
Cr261      Cr  0.99443517  0.85673347  0.82833448     1.93700
Cr262      Cr  0.03494869  0.85441393  0.85027694     1.93200
Cr263      Cr  0.01930215  0.88804457  0.80335328     1.39100
O264        O  0.01637886  0.86643161  0.82762094    -1.23500
O265        O  0.99473089  0.13822930  0.29168102    -0.85700
O266        O  0.96282381  0.13000650  0.25363955    -0.82800
C267        C  0.95418703  0.14412147  0.26347191     0.97700
O268        O  0.95804173  0.15917469  0.24574230    -0.82800
O269        O  0.97849228  0.18483690  0.19898407    -0.85400
C270        C  0.99170152  0.19166275  0.21948711     1.02300
O271        O  0.00486643  0.18192679  0.23120443    -0.78200
O272        O  0.01953267  0.15152115  0.26737784    -0.78400
C273        C  0.00877971  0.14756191  0.29842832     1.02200
O274        O  0.01361031  0.11775820  0.22677144    -0.85700
O275        O  0.98030320  0.11474938  0.18144042    -0.82800
C276        C  0.96514819  0.11946991  0.16543110     0.97800
O277        O  0.95896453  0.13542820  0.17101049    -0.82800
O278        O  0.98119250  0.15935466  0.12873052    -0.85400
C279        C  0.99677769  0.16463452  0.11724086     1.02200
O280        O  0.00910184  0.16765849  0.14495954    -0.78200
O281        O  0.02319134  0.13659176  0.17784619    -0.78400
C282        C  0.02430036  0.12132024  0.19594706     1.02200
Cr283      Cr  0.98829359  0.12690686  0.23601069     1.93700
Cr284      Cr  0.97082089  0.15898450  0.18798007     1.93200
Cr285      Cr  0.01242420  0.15849350  0.20576089     1.39100
O286        O  0.99054580  0.14833761  0.20963690    -1.23500
O287        O  0.00730713  0.13373854  0.78010976    -0.85700
O288        O  0.97140140  0.14046960  0.77702342    -0.82800
C289        C  0.95580957  0.14489581  0.76485649     0.97700
O290        O  0.95361120  0.15246583  0.72793895    -0.82800
O291        O  0.97567731  0.18362250  0.72137967    -0.85400
C292        C  0.98989702  0.19313156  0.72015977     1.02300
O293        O  0.00452120  0.18640494  0.70557949    -0.78200
O294        O  0.01282906  0.16271519  0.77132911    -0.78400
C295        C  0.01156007  0.14908509  0.79602833     1.02200
O296        O  0.00473738  0.11697588  0.69515444    -0.85700
O297        O  0.96729177  0.12071889  0.69665803    -0.82800
C298        C  0.96176495  0.12634184  0.65992006     0.97800
O299        O  0.96712637  0.14139330  0.64522334    -0.82800
O300        O  0.98759262  0.17198360  0.63436036    -0.85400
C301        C  0.00212944  0.16504640  0.61900738     1.02200
O302        O  0.01378445  0.15813942  0.64397541    -0.78200
O303        O  0.02644533  0.13640771  0.70891865    -0.78400
C304        C  0.02136954  0.12088348  0.69565345     1.02200
Cr305      Cr  0.98794610  0.12939283  0.73508068     1.93700
Cr306      Cr  0.97241522  0.16181848  0.68427292     1.93200
Cr307      Cr  0.01290679  0.16028275  0.70749947     1.39100
O308        O  0.99101883  0.15044385  0.70851711    -1.23500
O309        O  0.84297319  0.99877295  0.50669796    -0.85700
O310        O  0.82168333  0.01040714  0.43936921    -0.82800
C311        C  0.81609313  0.02490100  0.45700815     0.97700
O312        O  0.82659024  0.03836847  0.46023408    -0.82800
O313        O  0.85905246  0.05782659  0.46965832    -0.85400
C314        C  0.86606243  0.05476921  0.50667735     1.02300
O315        O  0.86918084  0.03871202  0.51839459    -0.78200
O316        O  0.87191007  0.00205913  0.51972002    -0.78400
C317        C  0.85591211  0.99913229  0.53346924     1.02200
O318        O  0.86893142  0.98368918  0.44499445    -0.85700
O319        O  0.84928426  0.99981884  0.37933651    -0.82800
C320        C  0.84287485  0.01232160  0.35572471     0.97800
O321        O  0.83797377  0.02741203  0.37243782    -0.82800
O322        O  0.87020441  0.04444931  0.38718401    -0.85400
C323        C  0.88508853  0.04882332  0.40415890     1.02200
O324        O  0.89000201  0.04174951  0.43995895    -0.78200
O325        O  0.89051288  0.00380408  0.43606138    -0.78400
C326        C  0.88498540  0.98760532  0.43343255     1.02200
Cr327      Cr  0.84659284  0.99958091  0.44299004     1.93700
Cr328      Cr  0.84887410  0.04050091  0.42430284     1.93200
Cr329      Cr  0.87900446  0.02136856  0.47608821     1.39100
O330        O  0.85827987  0.02053986  0.44736535    -1.23500
O331        O  0.84502258  0.99322572  0.00671789    -0.85700
O332        O  0.82245808  0.00634836  0.94365630    -0.82800
C333        C  0.81691276  0.02055250  0.96307395     0.97700
O334        O  0.82768205  0.03365957  0.96894756    -0.82800
O335        O  0.86053787  0.05340923  0.97839756    -0.85400
C336        C  0.86739876  0.04866172  0.01460235     1.02300
O337        O  0.86878400  0.03205424  0.02236298    -0.78200
O338        O  0.87395787  0.99616833  0.01767354    -0.78400
C339        C  0.85816276  0.99337960  0.03275669     1.02200
O340        O  0.87081407  0.98025835  0.94028191    -0.85700
O341        O  0.84954043  0.99776879  0.87941843    -0.82800
C342        C  0.84249993  0.01078336  0.85847794     0.97800
O343        O  0.83744030  0.02510351  0.87859462    -0.82800
O344        O  0.86992503  0.04175293  0.89249345    -0.85400
C345        C  0.88476679  0.04647256  0.90899238     1.02200
O346        O  0.89017180  0.03897605  0.94406058    -0.78200
O347        O  0.89203391  0.00115667  0.93501559    -0.78400
C348        C  0.88701639  0.98485023  0.93069614     1.02200
Cr349      Cr  0.84778844  0.99564268  0.94298283     1.93700
Cr350      Cr  0.84931315  0.03701015  0.93117219     1.93200
Cr351      Cr  0.87998840  0.01706216  0.97759515     1.39100
O352        O  0.85924193  0.01651778  0.94951569    -1.23500
O353        O  0.49265815  0.38448706  0.27740141    -0.85700
O354        O  0.52931894  0.38152738  0.27878693    -0.82800
C355        C  0.54547054  0.37849409  0.26788572     0.97700
O356        O  0.54874153  0.37174601  0.23080453    -0.82800
O357        O  0.52920091  0.33946775  0.22046738    -0.85400
C358        C  0.51604717  0.32886133  0.21413061     1.02300
O359        O  0.50178355  0.33460942  0.19592036    -0.78200
O360        O  0.48920374  0.35554614  0.26329529    -0.78400
C361        C  0.48944361  0.36842737  0.29043266     1.02200
O362        O  0.49545629  0.40356724  0.19512580    -0.85700
O363        O  0.53284572  0.40270950  0.20088802    -0.82800
C364        C  0.53972111  0.39843336  0.16452406     0.97800
O365        O  0.53620031  0.38320528  0.14781750    -0.82800
O366        O  0.51944801  0.35078296  0.13236989    -0.85400
C367        C  0.50524170  0.35664681  0.11359377     1.02200
O368        O  0.49233399  0.36299726  0.13607947    -0.78200
O369        O  0.47526723  0.38199704  0.20163355    -0.78400
C370        C  0.47929346  0.39821381  0.19148993     1.02200
Cr371      Cr  0.51243254  0.39168222  0.23578115     1.93700
Cr372      Cr  0.53192022  0.36173929  0.18466364     1.93200
Cr373      Cr  0.49099250  0.35960115  0.19972466     1.39100
O374        O  0.51182884  0.37113310  0.20643385    -1.23500
O375        O  0.49637928  0.38827136  0.77304984    -0.85700
O376        O  0.53261295  0.38293993  0.77263870    -0.82800
C377        C  0.54844564  0.37894435  0.76122319     0.97700
O378        O  0.55125937  0.37179512  0.72432907    -0.82800
O379        O  0.53016880  0.34037177  0.71803813    -0.85400
C380        C  0.51640503  0.33030066  0.71491873     1.02300
O381        O  0.50209394  0.33634484  0.69732454    -0.78200
O382        O  0.49182017  0.35932362  0.76263271    -0.78400
C383        C  0.49304869  0.37257090  0.78835223     1.02200
O384        O  0.49942146  0.40590531  0.68902807    -0.85700
O385        O  0.53700715  0.40308797  0.69288647    -0.82800
C386        C  0.54343860  0.39761052  0.65686132     0.97800
O387        O  0.53853114  0.38256464  0.64122425    -0.82800
O388        O  0.51984660  0.35078828  0.62968128    -0.85400
C389        C  0.50508161  0.35605676  0.61230915     1.02200
O390        O  0.49296403  0.36374292  0.63482080    -0.78200
O391        O  0.47812080  0.38553599  0.69893313    -0.78400
C392        C  0.48293761  0.40140909  0.68714905     1.02200
Cr393      Cr  0.51613228  0.39365847  0.72965792     1.93700
Cr394      Cr  0.53346671  0.36192408  0.68010203     1.93200
Cr395      Cr  0.49262649  0.36206240  0.69871363     1.39100
O396        O  0.51409581  0.37271484  0.70210364    -1.23500
O397        O  0.65898652  0.52614227  0.51182301    -0.85700
O398        O  0.68100962  0.51621799  0.44404096    -0.82800
C399        C  0.68743778  0.50182938  0.46084016     0.97700
O400        O  0.67765884  0.48780174  0.46300610    -0.82800
O401        O  0.64673037  0.46642996  0.47424655    -0.85400
C402        C  0.64003019  0.46901436  0.51184850     1.02300
O403        O  0.63586284  0.48480119  0.52369484    -0.78200
O404        O  0.63032047  0.52115855  0.52524215    -0.78400
C405        C  0.64607058  0.52512407  0.53865002     1.02200
O406        O  0.63180413  0.53970622  0.45146800    -0.85700
O407        O  0.65195226  0.52540615  0.38502165    -0.82800
C408        C  0.65792078  0.51315164  0.36016562     0.97800
O409        O  0.66469760  0.49862341  0.37608006    -0.82800
O410        O  0.63390241  0.47903929  0.39249890    -0.85400
C411        C  0.61922147  0.47422925  0.41000874     1.02200
O412        O  0.61447173  0.48066464  0.44652461    -0.78200
O413        O  0.61148726  0.51833590  0.44304212    -0.78400
C414        C  0.61580259  0.53492832  0.44142199     1.02200
Cr415      Cr  0.65522462  0.52539085  0.44835465     1.93700
Cr416      Cr  0.65526883  0.48448024  0.42836116     1.93200
Cr417      Cr  0.62444419  0.50147862  0.48215930     1.39100
O418        O  0.64485531  0.50371893  0.45246786    -1.23500
O419        O  0.65798016  0.52840057  0.00935948    -0.85700
O420        O  0.68060964  0.51549500  0.94528754    -0.82800
C421        C  0.68623790  0.50067397  0.96163379     0.97700
O422        O  0.67539094  0.48769300  0.96820895    -0.82800
O423        O  0.64256354  0.46840255  0.97835441    -0.85400
C424        C  0.63575190  0.47301681  0.01468890     1.02300
O425        O  0.63455292  0.48957707  0.02327704    -0.78200
O426        O  0.62884795  0.52567421  0.01810062    -0.78400
C427        C  0.64440414  0.52832498  0.03430783     1.02200
O428        O  0.63237342  0.54145644  0.94202837    -0.85700
O429        O  0.65386999  0.52459012  0.88174906    -0.82800
C430        C  0.66057644  0.51160988  0.86023995     0.97800
O431        O  0.66542566  0.49703476  0.87937001    -0.82800
O432        O  0.63289288  0.48098077  0.89312653    -0.85400
C433        C  0.61827003  0.47586656  0.91001284     1.02200
O434        O  0.61303917  0.48282720  0.94570500    -0.78200
O435        O  0.61131794  0.52041125  0.93573491    -0.78400
C436        C  0.61643115  0.53666083  0.93080750     1.02200
Cr437      Cr  0.65543031  0.52626011  0.94519959     1.93700
Cr438      Cr  0.65364351  0.48495585  0.93142117     1.93200
Cr439      Cr  0.62317111  0.50466389  0.97877161     1.39100
O440        O  0.64396872  0.50534634  0.95090496    -1.23500
O441        O  0.37506810  0.50482925  0.99739574    -0.85700
O442        O  0.37030691  0.54117808  0.00239130    -0.82800
C443        C  0.36542489  0.55664175  0.01511507     0.97700
O444        O  0.35764195  0.55846797  0.05173132    -0.82800
O445        O  0.32670573  0.53656947  0.05776306    -0.85400
C446        C  0.31686096  0.52263848  0.06148934     1.02300
O447        O  0.32350374  0.50812258  0.07685712    -0.78200
O448        O  0.34608355  0.49973880  0.00825146    -0.78400
C449        C  0.35939173  0.50107579  0.98252990     1.02200
O450        O  0.39229768  0.50617779  0.08363539    -0.85700
O451        O  0.38978496  0.54397995  0.08282296    -0.82800
C452        C  0.38399424  0.55005206  0.11893891     0.97800
O453        O  0.36901389  0.54475614  0.13389370    -0.82800
O454        O  0.33843974  0.52462491  0.14488289    -0.85400
C455        C  0.34534947  0.51014243  0.16078656     1.02200
O456        O  0.35214475  0.49842647  0.13562187    -0.78200
O457        O  0.37253604  0.48503231  0.06802853    -0.78400
C458        C  0.38769452  0.48967622  0.08373738     1.02200
Cr459      Cr  0.38051204  0.52369007  0.04374105     1.93700
Cr460      Cr  0.34847742  0.53971205  0.09499402     1.93200
Cr461      Cr  0.34924494  0.49927265  0.07201134     1.39100
O462        O  0.35948965  0.52102817  0.07041992    -1.23500
O463        O  0.37899825  0.52449429  0.49342422    -0.85700
O464        O  0.37925901  0.55744831  0.53091273    -0.82800
C465        C  0.36441750  0.56418268  0.51820626     0.97700
O466        O  0.34940264  0.55848611  0.53311032    -0.82800
O467        O  0.32536058  0.53540882  0.57928686    -0.85400
C468        C  0.32080343  0.52375873  0.55145573     1.02300
O469        O  0.33224959  0.51253470  0.53751646    -0.78200
O470        O  0.36468198  0.49931508  0.51126442    -0.78400
C471        C  0.37128815  0.50990026  0.48253992     1.02200
O472        O  0.39666946  0.50892087  0.56788772    -0.85700
O473        O  0.39312106  0.54252599  0.61010081    -0.82800
C474        C  0.38604267  0.55725435  0.62311724     0.97800
O475        O  0.37036265  0.56153454  0.61022603    -0.82800
O476        O  0.35015780  0.53537798  0.64964113    -0.85400
C477        C  0.34578291  0.51925486  0.65933045     1.02200
O478        O  0.34240695  0.50760196  0.62978913    -0.78200
O479        O  0.37500745  0.49490091  0.60281791    -0.78400
C480        C  0.39153379  0.49651655  0.59348686     1.02200
Cr481      Cr  0.38531484  0.53274920  0.55232302     1.93700
Cr482      Cr  0.34970180  0.54616688  0.59123327     1.93200
Cr483      Cr  0.35428268  0.50538488  0.57038411     1.39100
O484        O  0.36310051  0.52791833  0.57125417    -1.23500
O485        O  0.51230007  0.66745316  0.27112746    -0.85700
O486        O  0.50100484  0.69153877  0.33385597    -0.82800
C487        C  0.48701871  0.69742206  0.31452326     0.97700
O488        O  0.47349226  0.68708261  0.30983052    -0.82800
O489        O  0.45241374  0.65507058  0.30499391    -0.85400
C490        C  0.45573493  0.64662509  0.26983189     1.02300
O491        O  0.47179924  0.64240632  0.26086332    -0.78200
O492        O  0.50806070  0.63808812  0.26368985    -0.78400
C493        C  0.51202307  0.65348731  0.24735692     1.02200
O494        O  0.52533770  0.64270086  0.33684156    -0.85700
O495        O  0.50928768  0.66454035  0.39868348    -0.82800
C496        C  0.49662953  0.67188676  0.42012540     0.97800
O497        O  0.48266705  0.67792989  0.40042988    -0.82800
O498        O  0.46424137  0.64636442  0.39088796    -0.82200
C499        C  0.45952821  0.63095524  0.37734063     1.02200
O500        O  0.46659007  0.62448856  0.34296794    -0.78200
O501        O  0.50440026  0.62237842  0.35007100    -0.78400
C502        C  0.52088158  0.62695168  0.34987767     1.02200
Cr503      Cr  0.51058035  0.66581881  0.33490891     1.93700
Cr504      Cr  0.46962570  0.66607594  0.34980693     1.93200
Cr505      Cr  0.48789287  0.63327273  0.30652983     1.39100
O506        O  0.48928021  0.65495540  0.33070913    -1.23500
O507        O  0.51089004  0.67145863  0.77105855    -0.85700
O508        O  0.50328153  0.69387590  0.84006397    -0.82800
C509        C  0.48845167  0.70064169  0.82701637     0.97700
O510        O  0.47434294  0.69093555  0.82639209    -0.82800
O511        O  0.45279178  0.65956377  0.81985390    -0.85400
C512        C  0.45445197  0.65273224  0.78215828     1.02300
O513        O  0.46989167  0.64909142  0.76750816    -0.78200
O514        O  0.50575889  0.64256918  0.75984265    -0.78400
C515        C  0.50922795  0.65829490  0.74514199     1.02200
O516        O  0.52610942  0.64450461  0.82971199    -0.85700
O517        O  0.51384171  0.66498429  0.89803717    -0.82800
C518        C  0.50266685  0.67174163  0.92452776     0.97800
O519        O  0.48774470  0.67828511  0.91059931    -0.82800
O520        O  0.46802395  0.64710074  0.89939857    -0.85400
C521        C  0.46201485  0.63266469  0.88284939     1.02200
O522        O  0.46738097  0.62763751  0.84555117    -0.78200
O523        O  0.50500805  0.62422203  0.84293133    -0.78400
C524        C  0.52154313  0.62853642  0.84112169     1.02200
Cr525      Cr  0.51210910  0.66802958  0.83470447     1.93700
Cr526      Cr  0.47211546  0.66845116  0.86188242     1.93200
Cr527      Cr  0.48728971  0.63723554  0.80629478     1.39100
O528        O  0.49047224  0.65780416  0.83479261    -1.23500
O529        O  0.00975450  0.38438339  0.25493797    -0.85700
O530        O  0.97358632  0.37981044  0.25701467    -0.82800
C531        C  0.95818032  0.37374851  0.26674852     0.97700
O532        O  0.95593449  0.36469881  0.30156319    -0.82800
O533        O  0.97820187  0.33391724  0.30617072    -0.85400
C534        C  0.99223695  0.32421272  0.30910573     1.02300
O535        O  0.00624557  0.33068349  0.32680416    -0.78200
O536        O  0.01448952  0.35499318  0.26062734    -0.78400
C537        C  0.01357513  0.36917963  0.23745359     1.02200
O538        O  0.00793147  0.39935039  0.34275958    -0.85700
O539        O  0.97019524  0.39710112  0.33990958    -0.82800
C540        C  0.96357460  0.39038995  0.37448950     0.97800
O541        O  0.96765600  0.37449730  0.38616531    -0.82800
O542        O  0.98866642  0.34454285  0.39563894    -0.85400
C543        C  0.00301488  0.35135019  0.41213056     1.02200
O544        O  0.01519244  0.35818683  0.38834624    -0.78200
O545        O  0.02874091  0.37995830  0.32363675    -0.78400
C546        C  0.02441068  0.39474178  0.34177099     1.02200
Cr547      Cr  0.99062073  0.38867935  0.30070744     1.93700
Cr548      Cr  0.97407092  0.35500539  0.34547196     1.93200
Cr549      Cr  0.01467567  0.35661705  0.32471525     1.39100
O550        O  0.99292877  0.36686618  0.32400654    -1.23500
O551        O  0.01037865  0.38123972  0.74635702    -0.85700
O552        O  0.97412805  0.37559408  0.75008166    -0.82800
C553        C  0.95846571  0.37203704  0.76355516     0.97700
O554        O  0.95628334  0.36544883  0.80147679    -0.82800
O555        O  0.97781269  0.33427470  0.81440448    -0.85400
C556        C  0.99181984  0.32456989  0.81859972     1.02300
O557        O  0.00648354  0.33162955  0.83185166    -0.78200
O558        O  0.01559341  0.35262023  0.76186024    -0.78400
C559        C  0.01405852  0.36515531  0.73418465     1.02200
O560        O  0.00769951  0.40116880  0.82772755    -0.85700
O561        O  0.97024562  0.39802451  0.82586813    -0.82800
C562        C  0.96437761  0.39362176  0.86324042     0.97800
O563        O  0.96981566  0.37926731  0.88136137    -0.82800
O564        O  0.98933070  0.34857723  0.89850194    -0.85400
C565        C  0.00405580  0.35520640  0.91321485     1.02200
O566        O  0.01572654  0.36172521  0.88758355    -0.78200
O567        O  0.02918970  0.38098150  0.81889924    -0.78400
C568        C  0.02423249  0.39691378  0.82945229     1.02200
Cr569      Cr  0.99091675  0.38768364  0.78988372     1.93700
Cr570      Cr  0.97472730  0.35736786  0.84677211     1.93200
Cr571      Cr  0.01528295  0.35745094  0.82472598     1.39100
O572        O  0.99355809  0.36755001  0.82071560    -1.23500
O573        O  0.84858863  0.52098380  0.01173353    -0.85700
O574        O  0.82354133  0.51004244  0.07317190    -0.82800
C575        C  0.81717904  0.49590440  0.05550952     0.97700
O576        O  0.82710920  0.48206139  0.05084500    -0.82800
O577        O  0.85845707  0.46045959  0.04495709    -0.85400
C578        C  0.86698875  0.46396574  0.00999570     1.02300
O579        O  0.87200920  0.47990148  0.00187212    -0.78200
O580        O  0.87766080  0.51602590  0.00678123    -0.78400
C581        C  0.86283703  0.52040752  0.98885053     1.02200
O582        O  0.87267813  0.53285210  0.08052313    -0.85700
O583        O  0.84936986  0.51724471  0.13994292    -0.82800
C584        C  0.84153079  0.50469335  0.16087259     0.97800
O585        O  0.83609650  0.49038250  0.14147101    -0.82800
O586        O  0.86720255  0.47070599  0.13153476    -0.85400
C587        C  0.88288256  0.46659925  0.11859160     1.02200
O588        O  0.88931362  0.47363252  0.08420643    -0.78200
O589        O  0.89199902  0.51092336  0.09348705    -0.78400
C590        C  0.88789266  0.52754387  0.09491841     1.02200
Cr591      Cr  0.84926040  0.51880225  0.07602621     1.93700
Cr592      Cr  0.84784677  0.47743463  0.09050454     1.93200
Cr593      Cr  0.88122591  0.49528696  0.04859678     1.39100
O594        O  0.85950579  0.49707497  0.07220800    -1.23500
O595        O  0.84676595  0.51950835  0.51158083    -0.85700
O596        O  0.82483951  0.51153896  0.58080663    -0.82800
C597        C  0.81813791  0.49717086  0.56479084     0.97700
O598        O  0.82767435  0.48292182  0.56307594    -0.82800
O599        O  0.85870495  0.46062584  0.55628758    -0.85400
C600        C  0.86586135  0.46248000  0.51892516     1.02300
O601        O  0.86922654  0.47810957  0.50478717    -0.78200
O602        O  0.87533250  0.51420566  0.49882751    -0.78400
C603        C  0.85948937  0.51752644  0.48465324     1.02200
O604        O  0.87438373  0.53398825  0.57075568    -0.85700
O605        O  0.85397573  0.52126991  0.63835032    -0.82800
C606        C  0.84725801  0.50974886  0.66424156     0.97800
O607        O  0.84037852  0.49510425  0.64935344    -0.82800
O608        O  0.87099615  0.47513921  0.63645176    -0.85400
C609        C  0.88544955  0.46922198  0.61987054     1.02200
O610        O  0.89057033  0.47482998  0.58272393    -0.78200
O611        O  0.89409750  0.51234036  0.58196894    -0.78400
C612        C  0.88986127  0.52889584  0.58433618     1.02200
Cr613      Cr  0.85068131  0.52019675  0.57510443     1.93700
Cr614      Cr  0.84986010  0.47981192  0.59921465     1.93200
Cr615      Cr  0.88102203  0.49520527  0.54424612     1.39100
O616        O  0.86066532  0.49835294  0.57342542    -1.23500
O617        O  0.13215797  0.49753221  0.51543249    -0.85700
O618        O  0.13587048  0.53342370  0.51827232    -0.82800
C619        C  0.13932416  0.54977646  0.51103447     0.97700
O620        O  0.14693762  0.55416144  0.47529928    -0.82800
O621        O  0.17913438  0.53337816  0.46534596    -0.85400
C622        C  0.18933877  0.51974802  0.45972952     1.02300
O623        O  0.18338841  0.50634395  0.43860347    -0.78200
O624        O  0.16134499  0.49454693  0.50541751    -0.78400
C625        C  0.14789798  0.49469600  0.53090515     1.02200
O626        O  0.11508971  0.50147760  0.42983939    -0.85700
O627        O  0.11610307  0.53927517  0.43921507    -0.82800
C628        C  0.12146411  0.54673741  0.40421185     0.97800
O629        O  0.13690758  0.54323275  0.38902121    -0.82800
O630        O  0.16825052  0.52476085  0.37503653    -0.85400
C631        C  0.16209843  0.51058070  0.35612415     1.02200
O632        O  0.15567088  0.49760613  0.37837521    -0.78200
O633        O  0.13572974  0.48073544  0.44248526    -0.78400
C634        C  0.12017113  0.48511399  0.42859580     1.02200
Cr635      Cr  0.12605291  0.51783125  0.47345053     1.93700
Cr636      Cr  0.15739942  0.53744352  0.42782202     1.93200
Cr637      Cr  0.15831013  0.49612946  0.44162071     1.39100
O638        O  0.14710029  0.51725007  0.44700066    -1.23500
O639        O  0.12718837  0.50411556  0.01688711    -0.85700
O640        O  0.13381405  0.54001586  0.01589358    -0.82800
C641        C  0.13875275  0.55575327  0.00551251     0.97700
O642        O  0.14638161  0.55832270  0.96880656    -0.82800
O643        O  0.17695696  0.53581332  0.96167854    -0.85400
C644        C  0.18635005  0.52149287  0.95992938     1.02300
O645        O  0.17980979  0.50739686  0.94233498    -0.78200
O646        O  0.15611437  0.49888046  0.00795987    -0.78400
C647        C  0.14256930  0.50002488  0.03281138     1.02200
O648        O  0.11075389  0.50759859  0.93122917    -0.85700
O649        O  0.11485131  0.54554984  0.93546533    -0.82800
C650        C  0.12103708  0.55186493  0.89988534     0.97800
O651        O  0.13542477  0.54547117  0.88432292    -0.82800
O652        O  0.16584962  0.52514045  0.87290371    -0.85400
C653        C  0.15959424  0.51043733  0.85649884     1.02200
O654        O  0.15185467  0.49893901  0.88062311    -0.78200
O655        O  0.12999742  0.48569477  0.94503154    -0.78400
C656        C  0.11480004  0.49092755  0.93025390     1.02200
Cr657      Cr  0.12297566  0.52401990  0.97258324     1.93700
Cr658      Cr  0.15559555  0.53983387  0.92370710     1.93200
Cr659      Cr  0.15377837  0.49916224  0.94419669     1.39100
O660        O  0.14403506  0.52108021  0.94635496    -1.23500
O661        O  0.98961453  0.65995916  0.26670500    -0.85700
O662        O  0.99755067  0.68292058  0.19948663    -0.82800
C663        C  0.01170514  0.69019372  0.21471616     0.97700
O664        O  0.02619269  0.68110526  0.21763025    -0.82800
O665        O  0.04924043  0.65045560  0.22631362    -0.85400
C666        C  0.04716081  0.64259907  0.26290606     1.02300
O667        O  0.03166845  0.63759546  0.27465399    -0.78200
O668        O  0.99575715  0.63118749  0.27811612    -0.78400
C669        C  0.99179857  0.64686822  0.29267453     1.02200
O670        O  0.97666020  0.63287448  0.20573548    -0.85700
O671        O  0.98961597  0.65413043  0.13962554    -0.82800
C672        C  0.00092719  0.66203481  0.11529766     0.97800
O673        O  0.01553356  0.66854572  0.13118835    -0.82800
O674        O  0.03674608  0.63840970  0.14387939    -0.85400
C675        C  0.04227254  0.62356307  0.15946799     1.02200
O676        O  0.03609490  0.61771693  0.19542719    -0.78200
O677        O  0.99862856  0.61343236  0.19365790    -0.78400
C678        C  0.98204039  0.61744933  0.19273056     1.02200
Cr679      Cr  0.98988731  0.65675497  0.20312028     1.93700
Cr680      Cr  0.03048906  0.65900194  0.18181895     1.93200
Cr681      Cr  0.01519585  0.62638422  0.23313791     1.39100
O682        O  0.01196723  0.64729015  0.20562572    -1.23500
O683        O  0.98626896  0.65077219  0.76286901    -0.85700
O684        O  0.00178816  0.68163281  0.73058600    -0.82800
C685        C  0.01366122  0.69203163  0.71488824     0.97700
O686        O  0.02570131  0.68561032  0.68993584    -0.82800
O687        O  0.04731977  0.66095651  0.73815831    -0.85400
C688        C  0.05188714  0.64601330  0.75560359     1.02300
O689        O  0.04337672  0.63152155  0.74737937    -0.78200
O690        O  0.01051830  0.63586754  0.78454188    -0.78400
C691        C  0.99610182  0.64435536  0.79318207     1.02200
O692        O  0.98195792  0.63784802  0.67302184    -0.85700
O693        O  0.99647747  0.66885415  0.64149468    -0.82800
C694        C  0.00776695  0.66377282  0.61272824     0.97800
O695        O  0.02349917  0.65867196  0.62317213    -0.82800
O696        O  0.04779459  0.63715958  0.66474095    -0.85400
C697        C  0.04217628  0.62121130  0.65733241     1.02200
O698        O  0.02700806  0.61600980  0.67198030    -0.78200
O699        O  0.99352723  0.61689633  0.71492753    -0.78400
C700        C  0.98206000  0.62175467  0.68686883     1.02200
Cr701      Cr  0.99339423  0.65895207  0.70225465     1.93700
Cr702      Cr  0.03444140  0.65990917  0.68102518     1.93200
Cr703      Cr  0.01821669  0.62683290  0.72756144     1.39100
O704        O  0.01525265  0.64866136  0.70383952    -1.23500
C705        C  0.98270305  0.66545247  0.90200899    -0.11800
C706        C  0.99064388  0.65290216  0.93069339     0.14800
C707        C  0.99741784  0.63633496  0.91420353     0.01700
C708        C  0.99795813  0.63354515  0.86934222    -0.16100
C709        C  0.99135106  0.64666689  0.83995356    -0.10900
C710        C  0.98282264  0.66246080  0.85677305     0.08400
C711        C  0.99301736  0.65785328  0.97708477     0.09400
S712        S  0.00633107  0.61853970  0.94865391    -0.25200
H713        H  0.00410358  0.62113744  0.85721810     0.19700
S714        S  0.97321173  0.67950408  0.82134087    -0.30900
H715        H  0.97716975  0.67796496  0.91504808     0.10000
C716        C  0.01038645  0.66135114  0.99438259     0.03200
C717        C  0.01243292  0.66377995  0.03936090    -0.13200
C718        C  0.99744359  0.66293364  0.06764150    -0.08900
C719        C  0.97983881  0.66088468  0.04946666     0.06700
C720        C  0.97788195  0.65817335  0.00462880    -0.14000
S721        S  0.03003354  0.66241529  0.95917330    -0.30900
H722        H  0.02589313  0.66558449  0.05268573     0.10900
S723        S  0.95926431  0.66170183  0.08123561    -0.28000
H724        H  0.96448374  0.65592951  0.99119201     0.08100
H725        H  0.96693180  0.69133543  0.85398977     0.26600
H726        H  0.04309056  0.66436789  0.99214081     0.21400
H727        H  0.96548558  0.67550465  0.10917685     0.26700
H728        H  0.99538156  0.62247865  0.98492394     0.15500
C729        C  0.99819312  0.66783812  0.40434781    -0.11800
C730        C  0.98984692  0.65493908  0.43114260     0.14800
C731        C  0.98105206  0.63981857  0.41214990     0.01700
C732        C  0.98169666  0.63746027  0.36688124    -0.16100
C733        C  0.99059796  0.65013200  0.34005663    -0.10900
C734        C  0.99895144  0.66550014  0.35940989     0.08400
C735        C  0.99315339  0.65642332  0.47843627     0.09400
S736        S  0.96925162  0.62292754  0.44407599    -0.25200
H737        H  0.97524316  0.62565765  0.35251949     0.19700
S738        S  0.01252510  0.68172349  0.32981043    -0.30900
H739        H  0.00527298  0.67924393  0.41890297     0.10000
C740        C  0.00611930  0.64520369  0.49869795     0.03200
C741        C  0.01064462  0.64828788  0.54212725    -0.13200
C742        C  0.00254274  0.66238048  0.56630659    -0.08900
C743        C  0.98946664  0.67361645  0.54591604     0.06700
C744        C  0.98492180  0.67050290  0.50223539    -0.14000
S745        S  0.01760168  0.62738950  0.46891612    -0.30900
H746        H  0.02055987  0.63949756  0.55745551     0.10900
S747        S  0.97882801  0.69260618  0.57283071    -0.28000
H748        H  0.97524646  0.67939462  0.48630391     0.08100
H749        H  0.02046215  0.66892712  0.30187611     0.26600
H750        H  0.02526295  0.61862779  0.50518744     0.21400
H751        H  0.99452965  0.69797428  0.59540215     0.26700
H752        H  0.96547834  0.63429786  0.47969945     0.15500
C753        C  0.09312729  0.62234746  0.78603936    -0.11800
C754        C  0.08853326  0.61776955  0.82904433     0.14800
C755        C  0.07581334  0.62887804  0.85122015     0.01700
C756        C  0.06530159  0.64133505  0.82742446    -0.16100
C757        C  0.06813051  0.64381942  0.78266600    -0.10900
C758        C  0.08344471  0.63564757  0.76322228     0.08400
C759        C  0.09641547  0.60076962  0.84801969     0.09400
S760        S  0.07183844  0.62731072  0.90901554    -0.25200
H761        H  0.05379024  0.64782274  0.84302529     0.19700
S762        S  0.08936912  0.63949819  0.70704311    -0.30900
H763        H  0.10346176  0.61464212  0.76896938     0.10000
C764        C  0.08551396  0.58635482  0.86417937     0.03200
C765        C  0.09382139  0.57060457  0.88119523    -0.13200
C766        C  0.11270973  0.56821093  0.87933913    -0.08900
C767        C  0.12343408  0.58216203  0.86006786     0.06700
C768        C  0.11522890  0.59822363  0.84562141    -0.14000
S769        S  0.06105288  0.58719313  0.86008913    -0.30900
H770        H  0.08554387  0.55986386  0.89497545     0.10900
S771        S  0.14774573  0.58085567  0.85340601    -0.28000
H772        H  0.12368422  0.60891914  0.83215046     0.08100
H773        H  0.08024267  0.65625213  0.70345146     0.26600
H774        H  0.05765757  0.56947721  0.87553540     0.21400
H775        H  0.15122128  0.57537505  0.89627487     0.26700
H776        H  0.08866279  0.61934306  0.91923467     0.15500
C777        C  0.11215846  0.59682257  0.04197948    -0.11800
C778        C  0.10639263  0.59071649  0.08306838     0.14800
C779        C  0.11533047  0.57569445  0.10208011     0.01700
C780        C  0.12816113  0.56595558  0.07781854    -0.16100
C781        C  0.13246363  0.57076669  0.03457787    -0.10900
C782        C  0.12537763  0.58732780  0.01812244     0.08400
C783        C  0.09004462  0.59916975  0.10333273     0.09400
S784        S  0.11015984  0.56755341  0.15608466    -0.25200
H785        H  0.13374995  0.55358811  0.09170495     0.19700
S786        S  0.13142382  0.59638762  0.96578750    -0.30900
H787        H  0.10573635  0.60864438  0.02751918     0.10000
C788        C  0.08968777  0.61768816  0.11520173     0.03200
C789        C  0.07366484  0.62521573  0.13214344    -0.13200
C790        C  0.05800436  0.61459369  0.13853732    -0.08900
C791        C  0.05843807  0.59597751  0.12739982     0.06700
C792        C  0.07437584  0.58850872  0.10972554    -0.14000
S793        S  0.10987254  0.63154027  0.11088133    -0.30900
H794        H  0.07345376  0.63940303  0.14170463     0.10900
S795        S  0.03907419  0.58122129  0.13390175    -0.28000
H796        H  0.07452687  0.57428159  0.10044099     0.08100
H797        H  0.14998872  0.59237712  0.97057118     0.26600
H798        H  0.10230391  0.64764296  0.12774368     0.21400
H799        H  0.02583121  0.59482862  0.12850449     0.26700
H800        H  0.10433119  0.58440064  0.17262332     0.15500
C801        C  0.09662218  0.57696731  0.32300136    -0.11800
C802        C  0.09591289  0.59350989  0.34609740     0.14800
C803        C  0.10309776  0.59400094  0.38870427     0.01700
C804        C  0.10990407  0.57806673  0.40765383    -0.16100
C805        C  0.11092594  0.56170708  0.38434684    -0.10900
C806        C  0.10448197  0.56126897  0.34114472     0.08400
C807        C  0.08599565  0.60937793  0.32692408     0.09400
S808        S  0.10498155  0.61472928  0.41972453    -0.25200
H809        H  0.11544810  0.57869852  0.44017753     0.19700
S810        S  0.10584648  0.54120407  0.30758758    -0.30900
H811        H  0.09089102  0.57621881  0.29063294     0.10000
C812        C  0.08983292  0.61627543  0.28491974     0.03200
C813        C  0.07807844  0.62916932  0.26601355    -0.13200
C814        C  0.06275425  0.63561136  0.28855180    -0.08900
C815        C  0.06041506  0.63048245  0.33257309     0.06700
C816        C  0.07162767  0.61706525  0.35066217    -0.14000
S817        S  0.10943220  0.60846837  0.25489045    -0.30900
H818        H  0.08006732  0.63315022  0.23243930     0.10900
S819        S  0.04260378  0.64028598  0.36558872    -0.28000
H820        H  0.06870483  0.61199522  0.38299485     0.08100
H821        H  0.10664327  0.52866169  0.34199324     0.26600
H822        H  0.10669275  0.61929478  0.21768502     0.21400
H823        H  0.04912789  0.63384901  0.40573585     0.26700
H824        H  0.10699382  0.62631871  0.38358287     0.15500
C825        C  0.15768508  0.48683140  0.74543364    -0.11800
C826        C  0.15847009  0.50174326  0.71708111     0.14800
C827        C  0.16060172  0.51939065  0.73453803     0.01700
C828        C  0.16187424  0.52171755  0.77987712    -0.16100
C829        C  0.16069170  0.50683099  0.80862227    -0.10900
C830        C  0.15881277  0.48906015  0.79074282     0.08400
C831        C  0.15638823  0.49846280  0.66945592     0.09400
S832        S  0.16071422  0.53910564  0.69933304    -0.25200
H833        H  0.16306012  0.53531572  0.79307593     0.19700
S834        S  0.15809974  0.46888556  0.82464845    -0.30900
H835        H  0.15608415  0.47335643  0.73174983     0.10000
C836        C  0.17089784  0.50092014  0.64008513     0.03200
C837        C  0.16797267  0.49852471  0.59530155    -0.13200
C838        C  0.15089731  0.49330596  0.57885551    -0.08900
C839        C  0.13685320  0.48930204  0.60891861     0.06700
C840        C  0.13966687  0.49218174  0.65354509    -0.14000
S841        S  0.19320978  0.50699220  0.65958069    -0.30900
H842        H  0.17894463  0.50141016  0.57287132     0.10900
S843        S  0.11512545  0.48036558  0.59271459    -0.28000
H844        H  0.12865828  0.48958942  0.67613948     0.08100
H845        H  0.15687826  0.45594412  0.79111775     0.26600
H846        H  0.20199883  0.50692963  0.61893030     0.21400
H847        H  0.12219683  0.46948677  0.55905657     0.26700
H848        H  0.16187512  0.55232251  0.73225758     0.15500
C849        C  0.16394509  0.49225577  0.14409774    -0.11800
C850        C  0.15133194  0.50091056  0.17124140     0.14800
C851        C  0.13495988  0.50746157  0.15324003     0.01700
C852        C  0.13206146  0.50618336  0.10834086    -0.16100
C853        C  0.14492675  0.49799559  0.08067438    -0.10900
C854        C  0.16076739  0.49031794  0.09949082     0.08400
C855        C  0.15577387  0.50323457  0.21796474     0.09400
S856        S  0.11734490  0.51780631  0.18572515    -0.25200
H857        H  0.11983322  0.51211464  0.09487292     0.19700
S858        S  0.17744282  0.47768897  0.06894471    -0.30900
H859        H  0.17638708  0.48691301  0.15787663     0.10000
C860        C  0.15698137  0.48818478  0.24617873     0.03200
C861        C  0.16027531  0.49106384  0.29046897    -0.13200
C862        C  0.16202776  0.50872847  0.30783838    -0.08900
C863        C  0.16127571  0.52383069  0.27909151     0.06700
C864        C  0.15834181  0.52084246  0.23449605    -0.14000
S865        S  0.15314125  0.46534052  0.22639956    -0.30900
H866        H  0.16084830  0.47941307  0.31202569     0.10900
S867        S  0.16284190  0.54699897  0.29850332    -0.28000
H868        H  0.15751696  0.53228772  0.21234567     0.08100
H869        H  0.16452766  0.46868274  0.04306179     0.26600
H870        H  0.15456568  0.45639263  0.26672348     0.21400
H871        H  0.15930911  0.55572312  0.25865242     0.26700
H872        H  0.12071332  0.50766772  0.22369991     0.15500
C873        C  0.10764168  0.56685803  0.59661415    -0.11800
C874        C  0.10306994  0.58409772  0.58037986     0.14800
C875        C  0.11472869  0.59209578  0.54892544     0.01700
C876        C  0.12797406  0.58128648  0.52822711    -0.16100
C877        C  0.13109759  0.56322932  0.54158253    -0.10900
C878        C  0.12220241  0.55697296  0.57977686     0.08400
C879        C  0.08638592  0.59304467  0.59831928     0.09400
S880        S  0.11391681  0.61595821  0.53513670    -0.25200
H881        H  0.13547197  0.58684687  0.50095968     0.19700
S882        S  0.12885488  0.53620888  0.60733380    -0.30900
H883        H  0.09953725  0.56086992  0.62228155     0.10000
C884        C  0.07239407  0.60028507  0.57174998     0.03200
C885        C  0.05727721  0.60874874  0.59138177    -0.13200
C886        C  0.05495107  0.60843603  0.63667465    -0.08900
C887        C  0.06778930  0.59922925  0.66249995     0.06700
C888        C  0.08366230  0.59257280  0.64357727    -0.14000
S889        S  0.07302130  0.59784309  0.51329055    -0.30900
H890        H  0.04727684  0.61564833  0.57158086     0.10900
S891        S  0.06486314  0.59577585  0.72011430    -0.28000
H892        H  0.09387402  0.58663235  0.66455485     0.08100
H893        H  0.11693233  0.53755657  0.64294464     0.26600
H894        H  0.05803832  0.60907598  0.50423096     0.21400
H895        H  0.04586746  0.59426807  0.71859728     0.26700
H896        H  0.10567502  0.62166214  0.57406844     0.15500
C897        C  0.93187448  0.55091829  0.63551149    -0.11800
C898        C  0.92785189  0.56948798  0.63104116     0.14800
C899        C  0.91119918  0.57460565  0.61187490     0.01700
C900        C  0.89927727  0.56116626  0.59674021    -0.16100
C901        C  0.90314063  0.54248225  0.60152534    -0.10900
C902        C  0.91960935  0.53745076  0.62243592     0.08400
C903        C  0.94148052  0.58308789  0.64588084     0.09400
S904        S  0.90417843  0.59803246  0.60649893    -0.25200
H905        H  0.88673345  0.56544041  0.58148325     0.19700
S906        S  0.92574728  0.51428462  0.63529323    -0.30900
H907        H  0.94460507  0.54686355  0.65027414     0.10000
C908        C  0.94708142  0.58399377  0.68971572     0.03200
C909        C  0.96053507  0.59652017  0.70187401    -0.13200
C910        C  0.96832291  0.60849796  0.67144319    -0.08900
C911        C  0.96261679  0.60760515  0.62756177     0.06700
C912        C  0.94932362  0.59496760  0.61537370    -0.14000
S913        S  0.93656177  0.56977450  0.73065793    -0.30900
H914        H  0.96475332  0.59728155  0.73553524     0.10900
S915        S  0.97224878  0.62160608  0.58518895    -0.28000
H916        H  0.94524733  0.59417291  0.58158048     0.08100
H917        H  0.90899946  0.51039021  0.65537678     0.26600
H918        H  0.94624769  0.57658701  0.76647927     0.21400
H919        H  0.99009960  0.62083493  0.60126117     0.26700
H920        H  0.91280590  0.60421797  0.64445082     0.15500
C921        C  0.91071305  0.57009463  0.13934932    -0.11800
C922        C  0.92897616  0.56630458  0.13013258     0.14800
C923        C  0.93361104  0.54962463  0.11032025     0.01700
C924        C  0.91997682  0.53705600  0.10073741    -0.16100
C925        C  0.90163290  0.54086118  0.10949882    -0.10900
C926        C  0.89703622  0.55758756  0.12942748     0.08400
C927        C  0.94293032  0.57939113  0.14469332     0.09400
S928        S  0.95658085  0.54372928  0.09556300    -0.25200
H929        H  0.92371430  0.52440283  0.08498166     0.19700
S930        S  0.87421466  0.56339849  0.14519170    -0.30900
H931        H  0.90715139  0.58272526  0.15544165     0.10000
C932        C  0.94402816  0.59711094  0.12717622     0.03200
C933        C  0.95680105  0.60935369  0.14395113    -0.13200
C934        C  0.96870918  0.60409302  0.17722031    -0.08900
C935        C  0.96773784  0.58626436  0.19430857     0.06700
C936        C  0.95488637  0.57412052  0.17784920    -0.14000
S937        S  0.92961539  0.60394378  0.08256359    -0.30900
H938        H  0.95774632  0.62299217  0.13072076     0.10900
S939        S  0.98194229  0.57843099  0.23822051    -0.28000
H940        H  0.95393577  0.56054850  0.19156097     0.08100
H941        H  0.87018076  0.54583369  0.16064271     0.26600
H942        H  0.93748020  0.62117199  0.07577592     0.21400
H943        H  0.98244671  0.59518400  0.26025377     0.26700
H944        H  0.96246363  0.56165986  0.08783950     0.15500
C945        C  0.87379570  0.52018733  0.86724509    -0.11800
C946        C  0.85660596  0.52350680  0.84937200     0.14800
C947        C  0.84219593  0.52823813  0.87748442     0.01700
C948        C  0.84487368  0.52805054  0.92257642    -0.16100
C949        C  0.86188374  0.52385599  0.94092235    -0.10900
C950        C  0.87673807  0.52083642  0.91223511     0.08400
C951        C  0.85381013  0.52060020  0.80190178     0.09400
S952        S  0.81995536  0.53436497  0.85787415    -0.25200
H953        H  0.83335732  0.53082605  0.94346378     0.19700
S954        S  0.89972663  0.51720107  0.93017639    -0.30900
H955        H  0.88500528  0.51675946  0.84593272     0.10000
C956        C  0.86318572  0.53086790  0.77031058     0.03200
C957        C  0.86036841  0.52721085  0.72605464    -0.13200
C958        C  0.84821222  0.51357403  0.71199846    -0.08900
C959        C  0.83853164  0.50361715  0.74402863     0.06700
C960        C  0.84168452  0.50701400  0.78826037    -0.14000
S961        S  0.87845593  0.54895885  0.78606027    -0.30900
H962        H  0.86794778  0.53497227  0.70223405     0.10900
S963        S  0.82163981  0.48677530  0.73116261    -0.28000
H964        H  0.83443849  0.49908366  0.81244002     0.08100
H965        H  0.89960001  0.53234891  0.95818476     0.26600
H966        H  0.88450788  0.55354116  0.74402826     0.21400
H967        H  0.81318983  0.49762929  0.69930953     0.26700
H968        H  0.82595239  0.54185566  0.81825927     0.15500
C969        C  0.83519615  0.51872660  0.37447914    -0.11800
C970        C  0.84879257  0.51211300  0.34675082     0.14800
C971        C  0.86630105  0.50894362  0.36391582     0.01700
C972        C  0.86949333  0.51149196  0.40843050    -0.16100
C973        C  0.85579220  0.51770881  0.43677089    -0.10900
C974        C  0.83848030  0.52179420  0.41877837     0.08400
C975        C  0.84449798  0.50951401  0.29983715     0.09400
S976        S  0.88521638  0.50160586  0.33094219    -0.25200
H977        H  0.88283474  0.50827089  0.42103780     0.19700
S978        S  0.81987762  0.53105190  0.44982791    -0.30900
H979        H  0.82185875  0.52162576  0.36135564     0.10000
C980        C  0.84458345  0.49219161  0.27992886     0.03200
C981        C  0.84237172  0.49083258  0.23464651    -0.13200
C982        C  0.83964593  0.50639663  0.20881392    -0.08900
C983        C  0.83770738  0.52347996  0.22958768     0.06700
C984        C  0.84045629  0.52488254  0.27451044    -0.14000
S985        S  0.84749749  0.47180717  0.31197171    -0.30900
H986        H  0.84356432  0.47766973  0.21908167     0.10900
S987        S  0.83139020  0.54393026  0.20084824    -0.28000
H988        H  0.83965651  0.53814345  0.28983091     0.08100
H989        H  0.83067426  0.54429213  0.47035572     0.26600
H990        H  0.84672804  0.45933357  0.27736673     0.21400
H991        H  0.82086340  0.53498611  0.16930751     0.26700
H992        H  0.87965192  0.51030792  0.29247318     0.15500
C993        C  0.06835794  0.42290060  0.84781432    -0.11800
C994        C  0.06255886  0.43659978  0.87631559     0.14800
C995        C  0.04408417  0.43747850  0.88833436     0.01700
C996        C  0.03190839  0.42462896  0.87180033    -0.16100
C997        C  0.03770645  0.41068189  0.84367353    -0.10900
C998        C  0.05619170  0.41011971  0.83100742     0.08400
C999        C  0.07592050  0.45038884  0.89061752     0.09400
S1000       S  0.03523741  0.45448078  0.92499011    -0.25200
H1001       H  0.01781731  0.42531857  0.88186595     0.19700
S1002       S  0.06501860  0.39424561  0.79166016    -0.30900
H1003       H  0.08244892  0.42248278  0.83763586     0.10000
C1004       C  0.09053869  0.44575519  0.91793354     0.03200
C1005       C  0.10310068  0.45919265  0.92975210    -0.13200
C1006       C  0.10150793  0.47722501  0.91456996    -0.08900
C1007       C  0.08704969  0.48161429  0.88604551     0.06700
C1008       C  0.07433542  0.46825747  0.87503204    -0.14000
S1009       S  0.09286457  0.42287364  0.93896248    -0.30900
H1010       H  0.11405180  0.45566617  0.95162321     0.10900
S1011       S  0.08445097  0.50361673  0.86072324    -0.28000
H1012       H  0.06331864  0.47169448  0.85318466     0.08100
H1013       H  0.05016621  0.39600569  0.76322318     0.26600
H1014       H  0.10943320  0.42557848  0.96066388     0.21400
H1015       H  0.10301569  0.50548524  0.85077286     0.26700
H1016       H  0.05120781  0.45659163  0.94940780     0.15500
C1017       C  0.93257921  0.43056728  0.90567016    -0.11800
C1018       C  0.91757182  0.41995459  0.91842679     0.14800
C1019       C  0.91800155  0.40099479  0.91126186     0.01700
C1020       C  0.93378777  0.39295849  0.89500940    -0.16100
C1021       C  0.94896375  0.40344249  0.88311775    -0.10900
C1022       C  0.94819758  0.42253810  0.88777177     0.08400
C1023       C  0.90201066  0.42896000  0.94039544     0.09400
S1024       S  0.89871434  0.38637081  0.92083901    -0.25200
H1025       H  0.93396646  0.37834558  0.88993809     0.19700
S1026       S  0.96678452  0.43724094  0.87286699    -0.30900
H1027       H  0.93225677  0.44518270  0.91053706     0.10000
C1028       C  0.89756141  0.42521871  0.98422331     0.03200
C1029       C  0.88373418  0.43519468  0.00465020    -0.13200
C1030       C  0.87473054  0.44935146  0.98278995    -0.08900
C1031       C  0.87840200  0.45223794  0.93812659     0.06700
C1032       C  0.89199728  0.44208123  0.91753127    -0.14000
S1033       S  0.91081709  0.40933243  0.01592251    -0.30900
H1034       H  0.88137260  0.43331422  0.03913935     0.10900
S1035       S  0.86693450  0.46944037  0.90641041    -0.28000
H1036       H  0.89517455  0.44479401  0.88371579     0.08100
H1037       H  0.98061499  0.42455863  0.88159197     0.26600
H1038       H  0.89949701  0.40926152  0.05282783     0.21400
H1039       H  0.85134145  0.47024228  0.93281183     0.26700
H1040       H  0.88538126  0.39975674  0.91385697     0.15500
C1041       C  0.93410020  0.39744161  0.67534709    -0.11800
C1042       C  0.92331430  0.40898164  0.70096387     0.14800
C1043       C  0.92125651  0.40509683  0.74574861     0.01700
C1044       C  0.93070206  0.39046636  0.76414874    -0.16100
C1045       C  0.94310083  0.38021054  0.73953709    -0.10900
C1046       C  0.94405493  0.38320865  0.69412091     0.08400
C1047       C  0.91402069  0.42464681  0.68001720     0.09400
S1048       S  0.90822741  0.41927014  0.78215406    -0.25200
H1049       H  0.92995252  0.38853439  0.79902663     0.19700
S1050       S  0.95844967  0.36989715  0.65892082    -0.30900
H1051       H  0.93521182  0.39991138  0.64069478     0.10000
C1052       C  0.92373065  0.43931943  0.66141036     0.03200
C1053       C  0.91420057  0.45382539  0.64209463    -0.13200
C1054       C  0.89516278  0.45409214  0.64169104    -0.08900
C1055       C  0.88550436  0.43921432  0.65990101     0.06700
C1056       C  0.89505148  0.42472744  0.67872255    -0.14000
S1057       S  0.94821484  0.43993669  0.66364322    -0.30900
H1058       H  0.92154824  0.46512016  0.62783059     0.10900
S1059       S  0.86102906  0.43772451  0.65667849    -0.28000
H1060       H  0.88775133  0.41322273  0.69214741     0.08100
H1061       H  0.95833994  0.35435929  0.68570705     0.26600
H1062       H  0.95047954  0.45560161  0.63780707     0.21400
H1063       H  0.85892865  0.42251805  0.68410664     0.26700
H1064       H  0.91194762  0.43578665  0.76073291     0.15500
C1065       C  0.08376005  0.45961461  0.36707941    -0.11800
C1066       C  0.07989298  0.44546633  0.39636973     0.14800
C1067       C  0.09041103  0.44364194  0.43451375     0.01700
C1068       C  0.10415698  0.45626056  0.44298554    -0.16100
C1069       C  0.10741440  0.47089834  0.41467490    -0.10900
C1070       C  0.09745208  0.47225878  0.37566873     0.08400
C1071       C  0.06539011  0.43240335  0.38504269     0.09400
S1072       S  0.08660523  0.42596569  0.47432218    -0.25200
H1073       H  0.11182579  0.45512346  0.47293218     0.19700
S1074       S  0.10199229  0.48932294  0.33489032    -0.30900
H1075       H  0.07613116  0.46069740  0.33707077     0.10000
C1076       C  0.04708870  0.43783500  0.38212586     0.03200
C1077       C  0.03395506  0.42518276  0.36897605    -0.13200
C1078       C  0.03866457  0.40706783  0.35914748    -0.08900
C1079       C  0.05700810  0.40153627  0.36453921     0.06700
C1080       C  0.07011824  0.41433026  0.37628972    -0.14000
S1081       S  0.04039806  0.46079592  0.39590836    -0.30900
H1082       H  0.01998134  0.42953212  0.36584651     0.10900
S1083       S  0.06474364  0.37838889  0.35849151    -0.28000
H1084       H  0.08416815  0.41011420  0.37916168     0.08100
H1085       H  0.12059117  0.49111984  0.34407383     0.26600
H1086       H  0.02190440  0.45896769  0.38552985     0.21400
H1087       H  0.05061423  0.37110739  0.38396869     0.26700
H1088       H  0.06779595  0.42448998  0.46761231     0.15500
C1089       C  0.93402820  0.42757502  0.42485092    -0.11800
C1090       C  0.91919687  0.41719845  0.43962611     0.14800
C1091       C  0.91955071  0.39813735  0.43434145     0.01700
C1092       C  0.93473268  0.38988687  0.41548959    -0.16100
C1093       C  0.94940899  0.40020641  0.39958348    -0.10900
C1094       C  0.94912437  0.41930671  0.40507145     0.08400
C1095       C  0.90348779  0.42663945  0.45983307     0.09400
S1096       S  0.90076257  0.38362009  0.44914098    -0.25200
H1097       H  0.93459677  0.37524733  0.41101185     0.19700
S1098       S  0.96772428  0.43375176  0.38884798    -0.30900
H1099       H  0.93387619  0.44222761  0.42903994     0.10000
C1100       C  0.89951867  0.42506040  0.50460946     0.03200
C1101       C  0.88496477  0.43498240  0.52228832    -0.13200
C1102       C  0.87472821  0.44702569  0.49650533    -0.08900
C1103       C  0.87810307  0.44765028  0.45124670     0.06700
C1104       C  0.89242950  0.43757478  0.43350699    -0.14000
S1105       S  0.91402785  0.41188422  0.54007161    -0.30900
H1106       H  0.88276681  0.43474642  0.55708831     0.10900
S1107       S  0.86521464  0.46188749  0.41488713    -0.28000
H1108       H  0.89524198  0.43856604  0.39898009     0.08100
H1109       H  0.98139889  0.42087894  0.39747948     0.26600
H1110       H  0.90432013  0.41501745  0.57877701     0.21400
H1111       H  0.84951626  0.46252492  0.44093789     0.26700
H1112       H  0.88701269  0.39648550  0.44132905     0.15500
C1113       C  0.00588346  0.36849196  0.52778909    -0.11800
C1114       C  0.01387631  0.35367907  0.54912482     0.14800
C1115       C  0.01750769  0.33758335  0.52531325     0.01700
C1116       C  0.01308369  0.33679435  0.48095521    -0.16100
C1117       C  0.00562855  0.35191522  0.45955223    -0.10900
C1118       C  0.00227682  0.36803669  0.48338409     0.08400
C1119       C  0.01657986  0.35520600  0.59680019     0.09400
S1120       S  0.02817153  0.31785916  0.54918032    -0.25200
H1121       H  0.01602429  0.32452271  0.46270086     0.19700
S1122       S  0.99326744  0.38861449  0.45989250    -0.30900
H1123       H  0.00256161  0.38069597  0.54596259     0.10000
C1124       C  0.02641990  0.36978069  0.61536456     0.03200
C1125       C  0.02566716  0.37262467  0.66047054    -0.13200
C1126       C  0.01571392  0.36090361  0.68750375    -0.08900
C1127       C  0.00665117  0.34579368  0.66894536     0.06700
C1128       C  0.00713367  0.34320782  0.62403217    -0.14000
S1129       S  0.04009422  0.38464483  0.58176235    -0.30900
H1130       H  0.03281319  0.38400607  0.67480834     0.10900
S1131       S  0.99316481  0.32989855  0.69992710    -0.28000
H1132       H  0.99931112  0.33220672  0.60995410     0.08100
H1133       H  0.00230147  0.38706600  0.42006985     0.26600
H1134       H  0.04539631  0.39666872  0.61494740     0.21400
H1135       H  0.98544597  0.34297893  0.72751596     0.26700
H1136       H  0.03817024  0.32748253  0.58053021     0.15500
C1137       C  0.00290670  0.34646532  0.03559568    -0.11800
C1138       C  0.01322533  0.36119375  0.05076281     0.14800
C1139       C  0.02155244  0.37300140  0.02051170     0.01700
C1140       C  0.01849037  0.37046118  0.97609051    -0.16100
C1141       C  0.00769224  0.35603033  0.96064874    -0.10900
C1142       C  0.00029330  0.34358298  0.99100839     0.08400
C1143       C  0.01444043  0.36419340  0.09825725     0.09400
S1144       S  0.03597029  0.39171719  0.03637909    -0.25200
H1145       H  0.02442831  0.38007840  0.95339504     0.19700
S1146       S  0.98795013  0.32349797  0.97516737    -0.30900
H1147       H  0.99680372  0.33715512  0.05875738     0.10000
C1148       C  0.00507471  0.37859990  0.11853580     0.03200
C1149       C  0.00588357  0.38041921  0.16383568    -0.13200
C1150       C  0.01581147  0.36809124  0.18957506    -0.08900
C1151       C  0.02576818  0.35407605  0.16878027     0.06700
C1152       C  0.02475124  0.35214656  0.12355553    -0.14000
S1153       S  0.99122425  0.39405475  0.08705744    -0.30900
H1154       H  0.99801815  0.39102868  0.17942481     0.10900
S1155       S  0.04027791  0.33846051  0.19770909    -0.28000
H1156       H  0.03215790  0.34122098  0.10783699     0.08100
H1157       H  0.99912544  0.31962544  0.93918312     0.26600
H1158       H  0.98677894  0.40592037  0.12132595     0.21400
H1159       H  0.04642598  0.35149241  0.22777519     0.26700
H1160       H  0.04203413  0.38400512  0.07560514     0.15500
C1161       C  0.91571973  0.39885747  0.23538702    -0.11800
C1162       C  0.92080552  0.40525125  0.19408438     0.14800
C1163       C  0.93609605  0.39749531  0.17347452     0.01700
C1164       C  0.94686912  0.38502289  0.19617581    -0.16100
C1165       C  0.94280052  0.37993044  0.23926945    -0.10900
C1166       C  0.92625016  0.38600134  0.25769046     0.08400
C1167       C  0.91088795  0.42102562  0.17520090     0.09400
S1168       S  0.94324439  0.40373050  0.11936178    -0.25200
H1169       H  0.95933334  0.38029549  0.18114409     0.19700
S1170       S  0.91867595  0.37942703  0.31109641    -0.30900
H1171       H  0.90384459  0.40452520  0.25122754     0.10000
C1172       C  0.89223298  0.42007684  0.16546131     0.03200
C1173       C  0.88336777  0.43549438  0.14888019    -0.13200
C1174       C  0.89278812  0.45180862  0.14094995    -0.08900
C1175       C  0.91144875  0.45278236  0.15088561     0.06700
C1176       C  0.92026060  0.43744793  0.16802841    -0.14000
S1177       S  0.87992834  0.39894378  0.17153619    -0.30900
H1178       H  0.86914737  0.43462793  0.14029618     0.10900
S1179       S  0.92460093  0.47324650  0.14336535    -0.28000
H1180       H  0.93454558  0.43833245  0.17607994     0.08100
H1181       H  0.92226200  0.36081735  0.30442140     0.26600
H1182       H  0.86266921  0.40590136  0.16125805     0.21400
H1183       H  0.91022831  0.48536940  0.15168725     0.26700
H1184       H  0.92601145  0.40899970  0.10469297     0.15500
C1185       C  0.48638364  0.67112561  0.54202307    -0.11800
C1186       C  0.50395650  0.67011208  0.55946786     0.14800
C1187       C  0.51897778  0.67099918  0.53100402     0.01700
C1188       C  0.51611215  0.67221025  0.48610193    -0.16100
C1189       C  0.49852343  0.67313604  0.46831939    -0.10900
C1190       C  0.48350335  0.67302512  0.49719412     0.08400
C1191       C  0.50612797  0.66756106  0.60718944     0.09400
S1192       S  0.54216013  0.67058185  0.54979007    -0.25200
H1193       H  0.52783484  0.67236475  0.46479459     0.19700
S1194       S  0.46030833  0.67412995  0.47916291    -0.30900
H1195       H  0.47476711  0.67032052  0.56360075     0.10000
C1196       C  0.49976395  0.68066323  0.63702368     0.03200
C1197       C  0.50158803  0.67746262  0.68173301    -0.13200
C1198       C  0.50989667  0.66156748  0.69764156    -0.08900
C1199       C  0.51671773  0.64867725  0.66770389     0.06700
C1200       C  0.51452356  0.65167483  0.62296843    -0.14000
S1201       S  0.48943800  0.70160352  0.61841615    -0.30900
H1202       H  0.49588836  0.68711825  0.70446430     0.10900
S1203       S  0.52862935  0.62838134  0.68437508    -0.28000
H1204       H  0.51949879  0.64159188  0.60020772     0.08100
H1205       H  0.46270783  0.69115839  0.45888179     0.26600
H1206       H  0.48608877  0.70914748  0.65967325     0.21400
H1207       H  0.53675931  0.63629329  0.72114786     0.26700
H1208       H  0.53879741  0.67956883  0.58932866     0.15500
C1209       C  0.52345674  0.67294930  0.13604095    -0.11800
C1210       C  0.51274436  0.66180055  0.10950899     0.14800
C1211       C  0.50389950  0.64657124  0.12783437     0.01700
C1212       C  0.50486906  0.64357951  0.17263109    -0.16100
C1213       C  0.51477040  0.65527771  0.19983361    -0.10900
C1214       C  0.52474247  0.66974509  0.18084703     0.08400
C1215       C  0.51078974  0.66642995  0.06294494     0.09400
S1216       S  0.49055435  0.63087094  0.09612425    -0.25200
H1217       H  0.49716296  0.63241986  0.18649523     0.19700
S1218       S  0.53939493  0.68450484  0.21172160    -0.30900
H1219       H  0.53067701  0.68434995  0.12179937     0.10000
C1220       C  0.49464455  0.67394535  0.04641410     0.03200
C1221       C  0.49271994  0.67635101  0.00137152    -0.13200
C1222       C  0.50664641  0.67138263  0.97220722    -0.08900
C1223       C  0.52328037  0.66468069  0.98960424     0.06700
C1224       C  0.52507415  0.66238093  0.03467118    -0.14000
S1225       S  0.47640533  0.68022594  0.08279564    -0.30900
H1226       H  0.48004158  0.68159947  0.98884357     0.10900
S1227       S  0.54256261  0.65888520  0.95583655    -0.28000
H1228       H  0.53752814  0.65695474  0.04810544     0.08100
H1229       H  0.54494287  0.67089408  0.24112514     0.26600
H1230       H  0.46440294  0.68665928  0.05074246     0.21400
H1231       H  0.55258496  0.64941965  0.98754960     0.26700
H1232       H  0.50055800  0.63264355  0.05741536     0.15500
C1233       C  0.27810225  0.52000739  0.48246048    -0.11800
C1234       C  0.26461278  0.52109395  0.51462639     0.14800
C1235       C  0.26973491  0.52251736  0.55866604     0.01700
C1236       C  0.28812876  0.52371003  0.56939453    -0.16100
C1237       C  0.30168065  0.52284862  0.53729200    -0.10900
C1238       C  0.29655646  0.52096565  0.49323665     0.08400
C1239       C  0.24533097  0.52102263  0.50121589     0.09400
S1240       S  0.25348902  0.52275342  0.60264360    -0.25200
H1241       H  0.29192758  0.52489775  0.60330466     0.19700
S1242       S  0.31273961  0.52061832  0.44917810    -0.30900
H1243       H  0.27419368  0.51885946  0.44862126     0.10000
C1244       C  0.23477448  0.53702527  0.50113111     0.03200
C1245       C  0.21650350  0.53621873  0.48822232    -0.13200
C1246       C  0.20844124  0.51965527  0.47576709    -0.08900
C1247       C  0.21911626  0.50351210  0.47761354     0.06700
C1248       C  0.23741857  0.50450169  0.48922332    -0.14000
S1249       S  0.24473388  0.55854289  0.51644507    -0.30900
H1250       H  0.20856847  0.54861682  0.48720739     0.10900
S1251       S  0.21030418  0.48101291  0.46769089    -0.28000
H1252       H  0.24548222  0.49215318  0.49019340     0.08100
H1253       H  0.32517320  0.53266789  0.46844954     0.26600
H1254       H  0.22884543  0.56903904  0.51253203     0.21400
H1255       H  0.19529473  0.48345439  0.49536276     0.26700
H1256       H  0.24036452  0.51187688  0.58213774     0.15500
C1257       C  0.42233264  0.58662630  0.67808863    -0.11800
C1258       C  0.41137816  0.60036974  0.69607873     0.14800
C1259       C  0.39240940  0.59911853  0.69228541     0.01700
C1260       C  0.38480632  0.58422388  0.67102743    -0.16100
C1261       C  0.39561358  0.57072419  0.65107556    -0.10900
C1262       C  0.41471056  0.57197163  0.65518195     0.08400
C1263       C  0.42004655  0.61585944  0.71861882     0.09400
S1264       S  0.37710951  0.61629763  0.71284256    -0.25200
H1265       H  0.37014796  0.58363545  0.66868510     0.19700
S1266       S  0.43009569  0.55597862  0.63053469    -0.30900
H1267       H  0.43695596  0.58757737  0.68103820     0.10000
C1268       C  0.41950667  0.61744443  0.76425927     0.03200
C1269       C  0.42858689  0.63192364  0.78430852    -0.13200
C1270       C  0.43895011  0.64429788  0.75980883    -0.08900
C1271       C  0.43850282  0.64336932  0.71400114     0.06700
C1272       C  0.42895765  0.62919282  0.69381252    -0.14000
S1273       S  0.40881162  0.60006997  0.79719565    -0.30900
H1274       H  0.42925118  0.63240165  0.81943773     0.10900
S1275       S  0.45086200  0.65975465  0.68152398    -0.28000
H1276       H  0.42888683  0.62809969  0.65869611     0.08100
H1277       H  0.42253594  0.55799435  0.58880741     0.26600
H1278       H  0.41186096  0.60835379  0.83772276     0.21400
H1279       H  0.44677559  0.65213008  0.64077606     0.26700
H1280       H  0.38882131  0.63119310  0.70681925     0.15500
C1281       C  0.42404002  0.59637232  0.41406834    -0.11800
C1282       C  0.40952643  0.60803544  0.42499428     0.14800
C1283       C  0.41232461  0.62703884  0.42294956     0.01700
C1284       C  0.42931633  0.63382336  0.41095899    -0.16100
C1285       C  0.44351902  0.62222978  0.39788286    -0.10900
C1286       C  0.44082807  0.60322759  0.39989929     0.08400
C1287       C  0.39249717  0.60000181  0.44297973     0.09400
S1288       S  0.39452489  0.64345755  0.43243139    -0.25200
H1289       H  0.43099122  0.64846084  0.40876310     0.19700
S1290       S  0.45836385  0.58708496  0.38630218    -0.30900
H1291       H  0.42236474  0.58176891  0.41714220     0.10000
C1292       C  0.38315441  0.58571078  0.42187695     0.03200
C1293       C  0.37018487  0.57556727  0.44517359    -0.13200
C1294       C  0.36613351  0.57973432  0.48864006    -0.08900
C1295       C  0.37309499  0.59593214  0.50657879     0.06700
C1296       C  0.38663280  0.60549232  0.48441083    -0.14000
S1297       S  0.38843325  0.57967253  0.36634408    -0.30900
H1298       H  0.36487599  0.56309587  0.43135925     0.10900
S1299       S  0.36751689  0.60309563  0.56104057    -0.28000
H1300       H  0.39346014  0.61655219  0.50094350     0.08100
H1301       H  0.47289541  0.59818101  0.39953087     0.26600
H1302       H  0.37534757  0.56583684  0.36221833     0.21400
H1303       H  0.35115275  0.59328141  0.56353403     0.26700
H1304       H  0.38032850  0.63227672  0.41767390     0.15500
C1305       C  0.26578344  0.51485714  0.05844309    -0.11800
C1306       C  0.26118310  0.52286449  0.01851955     0.14800
C1307       C  0.27488272  0.53157679  0.99380428     0.01700
C1308       C  0.29284453  0.53155504  0.00886880    -0.16100
C1309       C  0.29750867  0.52324686  0.04847799    -0.10900
C1310       C  0.28366841  0.51508541  0.07381595     0.08400
C1311       C  0.24199176  0.52190369  0.00384708     0.09400
S1312       S  0.27041489  0.54281771  0.94271085    -0.25200
H1313       H  0.30332275  0.53787158  0.98918702     0.19700
S1314       S  0.28780894  0.50526325  0.12665485    -0.30900
H1315       H  0.25530643  0.50841722  0.07788939     0.10000
C1316       C  0.23661398  0.51062575  0.96912008     0.03200
C1317       C  0.21836041  0.51053675  0.95582034    -0.13200
C1318       C  0.20523900  0.52130228  0.97694803    -0.08900
C1319       C  0.21055925  0.53172417  0.01347914     0.06700
C1320       C  0.22883733  0.53214108  0.02597895    -0.14000
S1321       S  0.25292977  0.49606175  0.94236966    -0.30900
H1322       H  0.21433041  0.50221135  0.92848974     0.10900
S1323       S  0.19460472  0.54398658  0.04698977    -0.28000
H1324       H  0.23283131  0.54036195  0.05357447     0.08100
H1325       H  0.30068072  0.51836777  0.13922900     0.26600
H1326       H  0.24095459  0.48868461  0.91150543     0.21400
H1327       H  0.18099142  0.53056800  0.04485967     0.26700
H1328       H  0.25235761  0.54766148  0.95186048     0.15500
C1329       C  0.41529656  0.61810662  0.23791937    -0.11800
C1330       C  0.42164095  0.61083559  0.19849691     0.14800
C1331       C  0.43663731  0.61923923  0.17794760     0.01700
C1332       C  0.44636763  0.63272659  0.20003074    -0.16100
C1333       C  0.44124949  0.63862701  0.24187900    -0.10900
C1334       C  0.42459769  0.63219658  0.25911129     0.08400
C1335       C  0.41224569  0.59467052  0.17978091     0.09400
S1336       S  0.44451750  0.61308976  0.12433527    -0.25200
H1337       H  0.45870978  0.63791886  0.18533421     0.19700
S1338       S  0.41487340  0.64059706  0.30881321    -0.30900
H1339       H  0.40323066  0.61243702  0.25290663     0.10000
C1340       C  0.42119719  0.57785081  0.17289010     0.03200
C1341       C  0.41190130  0.56344197  0.15249867    -0.13200
C1342       C  0.39353577  0.56514388  0.14128734    -0.08900
C1343       C  0.38433779  0.58162888  0.15067359     0.06700
C1344       C  0.39384879  0.59621523  0.16912603    -0.14000
S1345       S  0.44414602  0.57443896  0.19183790    -0.30900
H1346       H  0.41878461  0.55068951  0.14614003     0.10900
S1347       S  0.36057970  0.58459415  0.13768416    -0.28000
H1348       H  0.38699804  0.60903324  0.17491440     0.08100
H1349       H  0.41875594  0.65893545  0.29929912     0.26600
H1350       H  0.44602261  0.55639307  0.17724136     0.21400
H1351       H  0.35853500  0.60210834  0.15547478     0.26700
H1352       H  0.42824408  0.60532457  0.10983237     0.15500
C1353       C  0.33511596  0.49857929  0.77118107    -0.11800
C1354       C  0.34941998  0.50590264  0.79604119     0.14800
C1355       C  0.36229165  0.51718877  0.77509066     0.01700
C1356       C  0.36052131  0.52102009  0.73085024    -0.16100
C1357       C  0.34609703  0.51410952  0.70607492    -0.10900
C1358       C  0.33320629  0.50271781  0.72663974     0.08400
C1359       C  0.35054392  0.50212987  0.84373051     0.09400
S1360       S  0.38128395  0.52747718  0.80266879    -0.25200
H1361       H  0.37065755  0.52958950  0.71547285     0.19700
S1362       S  0.31367285  0.49383221  0.69861807    -0.30900
H1363       H  0.32515540  0.48991138  0.78682321     0.10000
C1364       C  0.33738740  0.50889299  0.87297885     0.03200
C1365       C  0.34026910  0.50731277  0.91798322    -0.13200
C1366       C  0.35620476  0.49946026  0.93487022    -0.08900
C1367       C  0.36898158  0.49197575  0.90553936     0.06700
C1368       C  0.36596121  0.49327904  0.86053903    -0.14000
S1369       S  0.31759341  0.52090304  0.85337169    -0.30900
H1370       H  0.33048358  0.51318334  0.94021757     0.10900
S1371       S  0.38937522  0.48065411  0.92329081    -0.28000
H1372       H  0.37603407  0.48788522  0.83831179     0.08100
H1373       H  0.31124595  0.50907552  0.67147371     0.26600
H1374       H  0.30969841  0.52440438  0.89420257     0.21400
H1375       H  0.38168356  0.47327395  0.96132632     0.26700
H1376       H  0.37242033  0.52981881  0.84260838     0.15500
C1377       C  0.35505638  0.49017612  0.27390206    -0.11800
C1378       C  0.35255502  0.50553882  0.30017267     0.14800
C1379       C  0.34606718  0.52177009  0.28109851     0.01700
C1380       C  0.34309506  0.52257139  0.23612830    -0.16100
C1381       C  0.34625995  0.50743739  0.20906718    -0.10900
C1382       C  0.35190111  0.49080942  0.22879425     0.08400
C1383       C  0.35822310  0.50472295  0.34656870     0.09400
S1384       S  0.34183551  0.54213339  0.31227648    -0.25200
H1385       H  0.33875659  0.53538797  0.22209655     0.19700
S1386       S  0.35536126  0.47019366  0.19764078    -0.30900
H1387       H  0.35996916  0.47776758  0.28884805     0.10000
C1388       C  0.34811746  0.49520576  0.37824299     0.03200
C1389       C  0.35349292  0.49590682  0.42213864    -0.13200
C1390       C  0.36878705  0.50599962  0.43524716    -0.08900
C1391       C  0.37951425  0.51451206  0.40260729     0.06700
C1392       C  0.37398860  0.51396016  0.35909045    -0.14000
S1393       S  0.32769669  0.48321348  0.36313114    -0.30900
H1394       H  0.34512812  0.48940441  0.44661981     0.10900
S1395       S  0.40046300  0.52626995  0.41387860    -0.28000
H1396       H  0.38202867  0.52092270  0.33462082     0.08100
H1397       H  0.36002986  0.45869527  0.23249185     0.26600
H1398       H  0.32291404  0.47738895  0.40520880     0.21400
H1399       H  0.40590499  0.51415888  0.44690349     0.26700
H1400       H  0.33723578  0.53322984  0.35127500     0.15500
C1401       C  0.41625553  0.62308864  0.93468570    -0.11800
C1402       C  0.41648991  0.60408003  0.93809339     0.14800
C1403       C  0.43209730  0.59442828  0.92417348     0.01700
C1404       C  0.44685263  0.60396234  0.90644899    -0.16100
C1405       C  0.44678197  0.62302989  0.90418530    -0.10900
C1406       C  0.43124783  0.63269186  0.91855057     0.08400
C1407       C  0.40017948  0.59472161  0.95572858     0.09400
S1408       S  0.43415170  0.57002070  0.92867397    -0.25200
H1409       H  0.45859772  0.59647748  0.89498636     0.19700
S1410       S  0.42975099  0.65720725  0.91374832    -0.30900
H1411       H  0.40415210  0.63037794  0.94448990     0.10000
C1412       C  0.39436491  0.59744143  0.99901713     0.03200
C1413       C  0.38053144  0.58645389  0.01615121    -0.13200
C1414       C  0.37258861  0.57259437  0.99123554    -0.08900
C1415       C  0.37685225  0.57150655  0.94647234     0.06700
C1416       C  0.39066939  0.58245764  0.92926876    -0.14000
S1417       S  0.40577615  0.61347529  0.03407825    -0.30900
H1418       H  0.37736252  0.58735811  0.05041244     0.10900
S1419       S  0.36578631  0.55569670  0.91044082    -0.28000
H1420       H  0.39453803  0.58089787  0.89545662     0.08100
H1421       H  0.41252291  0.65925793  0.93289542     0.26600
H1422       H  0.39475739  0.61086382  0.07096963     0.21400
H1423       H  0.35002176  0.55364145  0.93587020     0.26700
H1424       H  0.42378870  0.56835833  0.96691324     0.15500
C1425       C  0.73777974  0.50334735  0.95723865    -0.11800
C1426       C  0.74248573  0.49490374  0.99657728     0.14800
C1427       C  0.72860969  0.48766612  0.02330971     0.01700
C1428       C  0.71043699  0.48958293  0.01093802    -0.16100
C1429       C  0.70569079  0.49836752  0.97204018    -0.10900
C1430       C  0.71962712  0.50484763  0.94433186     0.08400
C1431       C  0.76175472  0.49505700  0.01053839     0.09400
S1432       S  0.73318307  0.47599226  0.07377508    -0.25200
H1433       H  0.69988692  0.48436137  0.03216774     0.19700
S1434       S  0.71520436  0.51452186  0.89149484    -0.30900
H1435       H  0.74834833  0.50882856  0.93644864     0.10000
C1436       C  0.77531329  0.48508108  0.98854947     0.03200
C1437       C  0.79324743  0.48540764  0.00412428    -0.13200
C1438       C  0.79794357  0.49556640  0.04117703    -0.08900
C1439       C  0.78418356  0.50546256  0.06310874     0.06700
C1440       C  0.76643880  0.50531170  0.04717471    -0.14000
S1441       S  0.76972004  0.47157580  0.94140533    -0.30900
H1442       H  0.80369672  0.47784029  0.98718218     0.10900
S1443       S  0.78799359  0.51779359  0.11290307    -0.28000
H1444       H  0.75602125  0.51294308  0.06416286     0.08100
H1445       H  0.70149972  0.50197105  0.88098393     0.26600
H1446       H  0.78746492  0.46561713  0.93224141     0.21400
H1447       H  0.79906838  0.50426058  0.13151129     0.26700
H1448       H  0.75013122  0.46891567  0.06121646     0.15500
C1449       C  0.59404224  0.57676718  0.87298785    -0.11800
C1450       C  0.57648448  0.57612768  0.89081690     0.14800
C1451       C  0.57213999  0.56221240  0.92082960     0.01700
C1452       C  0.58532841  0.54937422  0.93228755    -0.16100
C1453       C  0.60302680  0.55023503  0.91532995    -0.10900
C1454       C  0.60728884  0.56397877  0.88479006     0.08400
C1455       C  0.56284224  0.58978914  0.87670076     0.09400
S1456       S  0.55017409  0.56030761  0.94647194    -0.25200
H1457       H  0.58186655  0.53888744  0.95571881     0.19700
S1458       S  0.62895274  0.56517410  0.85786370    -0.30900
H1459       H  0.59734662  0.58714673  0.84916584     0.10000
C1460       C  0.56482504  0.60842512  0.88656804     0.03200
C1461       C  0.55137166  0.62079834  0.87350505    -0.13200
C1462       C  0.53575826  0.61493508  0.85145869    -0.08900
C1463       C  0.53406690  0.59629262  0.84057992     0.06700
C1464       C  0.54753108  0.58396438  0.85349705    -0.14000
S1465       S  0.58400518  0.61636581  0.91776146    -0.30900
H1466       H  0.55278944  0.63505972  0.88145333     0.10900
S1467       S  0.51553966  0.58746541  0.80872062    -0.28000
H1468       H  0.54613333  0.56970057  0.84519697     0.08100
H1469       H  0.62966098  0.54633316  0.85006292     0.26600
H1470       H  0.57936875  0.63494878  0.91749516     0.21400
H1471       H  0.51469336  0.60253694  0.78045798     0.26700
H1472       H  0.54653034  0.57909695  0.94768768     0.15500
C1473       C  0.73073654  0.48887901  0.52253449    -0.11800
C1474       C  0.74347124  0.50080184  0.50414351     0.14800
C1475       C  0.73765485  0.51333686  0.47212968     0.01700
C1476       C  0.71943329  0.51334603  0.45863267    -0.16100
C1477       C  0.70658617  0.50135742  0.47690583    -0.10900
C1478       C  0.71243514  0.48924412  0.51008913     0.08400
C1479       C  0.76257499  0.49993589  0.51978822     0.09400
S1480       S  0.75275334  0.52961048  0.44701909    -0.25200
H1481       H  0.71527666  0.52283627  0.43353695     0.19700
S1482       S  0.69718570  0.47460398  0.53983952    -0.30900
H1483       H  0.73503850  0.47947474  0.54769455     0.10000
C1484       C  0.76784259  0.50843113  0.55885173     0.03200
C1485       C  0.78596837  0.50719732  0.57288913    -0.13200
C1486       C  0.79897459  0.49722829  0.54928803    -0.08900
C1487       C  0.79353093  0.48854930  0.51033446     0.06700
C1488       C  0.77552564  0.49014814  0.49583709    -0.14000
S1489       S  0.75149129  0.52116451  0.59036477    -0.30900
H1490       H  0.79003416  0.51396668  0.60254885     0.10900
S1491       S  0.80923257  0.47630681  0.47632844    -0.28000
H1492       H  0.77154567  0.48363559  0.46574738     0.08100
H1493       H  0.68368415  0.48801476  0.54473494     0.26600
H1494       H  0.76320520  0.52573153  0.62471684     0.21400
H1495       H  0.81229051  0.46271176  0.50777452     0.26700
H1496       H  0.76503561  0.53110331  0.48169763     0.15500
C1497       C  0.58963328  0.57952566  0.42513049    -0.11800
C1498       C  0.57485423  0.57354935  0.40040876     0.14800
C1499       C  0.57370653  0.55500323  0.38882621     0.01700
C1500       C  0.58702936  0.54280858  0.40330194    -0.16100
C1501       C  0.60191216  0.54867324  0.42834561    -0.10900
C1502       C  0.60302244  0.56739156  0.43951195     0.08400
C1503       C  0.56081329  0.58702915  0.38784698     0.09400
S1504       S  0.55570029  0.54604585  0.35542529    -0.25200
H1505       H  0.58592984  0.52862965  0.39398869     0.19700
S1506       S  0.62055917  0.57675213  0.47350523    -0.30900
H1507       H  0.59051046  0.59375846  0.43417537     0.10000
C1508       C  0.54384472  0.58785447  0.40901747     0.03200
C1509       C  0.53108241  0.60103526  0.39617174    -0.13200
C1510       C  0.53501191  0.61359336  0.36289525    -0.08900
C1511       C  0.55207683  0.61258711  0.34171808     0.06700
C1512       C  0.56472391  0.59940363  0.35444640    -0.14000
S1513       S  0.53860814  0.57235990  0.45293957    -0.30900
H1514       H  0.51804774  0.60170504  0.41241808     0.10900
S1515       S  0.55797489  0.62677651  0.29605072    -0.28000
H1516       H  0.57770047  0.59865404  0.33787478     0.08100
H1517       H  0.61958604  0.56260044  0.50410685     0.26600
H1518       H  0.52069530  0.57832671  0.45992696     0.21400
H1519       H  0.55944997  0.64250799  0.32185971     0.26700
H1520       H  0.55236059  0.56211779  0.33189338     0.15500
C1521       C  0.64002491  0.52854220  0.66152669    -0.11800
C1522       C  0.65760786  0.52433930  0.67557489     0.14800
C1523       C  0.67160813  0.52228587  0.64474869     0.01700
C1524       C  0.66756473  0.52369215  0.60047093    -0.16100
C1525       C  0.64977499  0.52717856  0.58589482    -0.10900
C1526       C  0.63597242  0.53016513  0.61726626     0.08400
C1527       C  0.66052595  0.52104827  0.72239933     0.09400
S1528       S  0.69468385  0.51695119  0.65963091    -0.25200
H1529       H  0.67836095  0.52128131  0.57721787     0.19700
S1530       S  0.61296148  0.53604129  0.60348527    -0.30900
H1531       H  0.62930435  0.53031950  0.68532129     0.10000
C1532       C  0.66299628  0.53552348  0.75161031     0.03200
C1533       C  0.66411531  0.53185583  0.79623847    -0.13200
C1534       C  0.66265539  0.51396630  0.81250860    -0.08900
C1535       C  0.66091475  0.49941541  0.78259648     0.06700
C1536       C  0.65976864  0.50314457  0.73803474    -0.14000
S1537       S  0.66432024  0.55869010  0.73204007    -0.30900
H1538       H  0.66559797  0.54307552  0.81872027     0.10900
S1539       S  0.65847196  0.47602158  0.79899572    -0.28000
H1540       H  0.65780553  0.49203743  0.71536670     0.08100
H1541       H  0.61815902  0.54821794  0.57055615     0.26600
H1542       H  0.66718306  0.56694159  0.77269920     0.21400
H1543       H  0.67532957  0.47565754  0.82039798     0.26700
H1544       H  0.69432759  0.52535634  0.70062197     0.15500
C1545       C  0.64145282  0.52867516  0.24868704    -0.11800
C1546       C  0.65462522  0.52135577  0.22085919     0.14800
C1547       C  0.66927466  0.51148684  0.23917647     0.01700
C1548       C  0.67024636  0.50909653  0.28455866    -0.16100
C1549       C  0.65669130  0.51599124  0.31226917    -0.10900
C1550       C  0.64193955  0.52561313  0.29349565     0.08400
C1551       C  0.65195333  0.52364212  0.17307926     0.09400
S1552       S  0.68692321  0.50131831  0.20656838    -0.25200
H1553       H  0.68157759  0.50164307  0.29826492     0.19700
S1554       S  0.62242092  0.53312742  0.32404059    -0.30900
H1555       H  0.63012901  0.53617096  0.23500855     0.10000
C1556       C  0.63645543  0.51645360  0.15232741     0.03200
C1557       C  0.63387829  0.51939380  0.10774126    -0.13200
C1558       C  0.64660480  0.52901463  0.08248474    -0.08900
C1559       C  0.66197336  0.53653784  0.10353871     0.06700
C1560       C  0.66445987  0.53376705  0.14839986    -0.14000
S1561       S  0.62043085  0.50241972  0.18182933    -0.30900
H1562       H  0.62225166  0.51328913  0.09204073     0.10900
S1563       S  0.67868017  0.55008084  0.07543602    -0.28000
H1564       H  0.67618430  0.53965407  0.16429265     0.08100
H1565       H  0.62115805  0.51709806  0.34904013     0.26600
H1566       H  0.60759557  0.50064340  0.14829404     0.21400
H1567       H  0.66610853  0.55849800  0.04746821     0.26700
H1568       H  0.67594905  0.49747684  0.17039403     0.15500
C1569       C  0.44020276  0.42462338  0.64325965    -0.11800
C1570       C  0.44380515  0.44290621  0.65306622     0.14800
C1571       C  0.46018766  0.44742992  0.67415771     0.01700
C1572       C  0.47271365  0.43368183  0.68404606    -0.16100
C1573       C  0.46924827  0.41530257  0.67409001    -0.10900
C1574       C  0.45275609  0.41085505  0.65303304     0.08400
C1575       C  0.43075053  0.45700178  0.63836435     0.09400
S1576       S  0.46602959  0.47047434  0.68887953    -0.25200
H1577       H  0.48519265  0.43738577  0.70040278     0.19700
S1578       S  0.44742297  0.38815828  0.63511218    -0.30900
H1579       H  0.42775756  0.42113727  0.62647748     0.10000
C1580       C  0.43385397  0.46717728  0.60022369     0.03200
C1581       C  0.42100753  0.48014281  0.58686420    -0.13200
C1582       C  0.40508890  0.48336416  0.61105338    -0.08900
C1583       C  0.40243852  0.47354873  0.65034349     0.06700
C1584       C  0.41505328  0.46025313  0.66293858    -0.14000
S1585       S  0.45397235  0.46328334  0.56788923    -0.30900
H1586       H  0.42322195  0.48753618  0.55684298     0.10900
S1587       S  0.38386653  0.47792287  0.68709709    -0.28000
H1588       H  0.41286035  0.45267468  0.69275830     0.08100
H1589       H  0.46488982  0.38490224  0.61838726     0.26600
H1590       H  0.45118913  0.47761834  0.53823794     0.21400
H1591       H  0.38492271  0.49695971  0.68252371     0.26700
H1592       H  0.44818654  0.47689748  0.69388654     0.15500
C1593       C  0.57589456  0.43412511  0.61481276    -0.11800
C1594       C  0.59079064  0.42332990  0.60225782     0.14800
C1595       C  0.58996839  0.40433393  0.60874243     0.01700
C1596       C  0.57396641  0.39648243  0.62440850    -0.16100
C1597       C  0.55891097  0.40716961  0.63627230    -0.10900
C1598       C  0.56004457  0.42628296  0.63200551     0.08400
C1599       C  0.60652949  0.43224281  0.58070036     0.09400
S1600       S  0.60903207  0.38942968  0.59912556    -0.25200
H1601       H  0.57356305  0.38185793  0.62921182     0.19700
S1602       S  0.54165540  0.44129034  0.64657575    -0.30900
H1603       H  0.57648844  0.44875593  0.61032127     0.10000
C1604       C  0.61061172  0.42917516  0.53640914     0.03200
C1605       C  0.62409962  0.43964317  0.51599066    -0.13200
C1606       C  0.63309749  0.45364997  0.53834495    -0.08900
C1607       C  0.63011636  0.45553350  0.58361720     0.06700
C1608       C  0.61681289  0.44493201  0.60415281    -0.14000
S1609       S  0.59718683  0.41363079  0.50423073    -0.30900
H1610       H  0.62610040  0.43829984  0.48127790     0.10900
S1611       S  0.64207693  0.47199715  0.61634010    -0.28000
H1612       H  0.61399146  0.44704489  0.63836988     0.08100
H1613       H  0.52768132  0.42899630  0.63631547     0.26600
H1614       H  0.60769995  0.41469610  0.46611261     0.21400
H1615       H  0.65729263  0.47320818  0.58881848     0.26700
H1616       H  0.62254461  0.40252765  0.60691466     0.15500
C1617       C  0.57156433  0.40284436  0.85283566    -0.11800
C1618       C  0.58259100  0.41477792  0.82891170     0.14800
C1619       C  0.58544200  0.41150777  0.78411449     0.01700
C1620       C  0.57614429  0.39729539  0.76377295    -0.16100
C1621       C  0.56346319  0.38671927  0.78672709    -0.10900
C1622       C  0.56201951  0.38885294  0.83225456     0.08400
C1623       C  0.59119988  0.43028281  0.85157434     0.09400
S1624       S  0.59949075  0.42584200  0.75022102    -0.25200
H1625       H  0.57730218  0.39590289  0.72877964     0.19700
S1626       S  0.54767004  0.37459226  0.86539511    -0.30900
H1627       H  0.56995580  0.40480864  0.88755953     0.10000
C1628       C  0.58095448  0.44500109  0.86813159     0.03200
C1629       C  0.58992969  0.45975238  0.88772566    -0.13200
C1630       C  0.60891164  0.46002222  0.89077764    -0.08900
C1631       C  0.61902605  0.44480616  0.87589609     0.06700
C1632       C  0.61004551  0.43023566  0.85623591    -0.14000
S1633       S  0.55655002  0.44534806  0.86274104    -0.30900
H1634       H  0.58223837  0.47126503  0.89971667     0.10900
S1635       S  0.64331168  0.44315482  0.88403588    -0.28000
H1636       H  0.61767698  0.41864537  0.84444000     0.08100
H1637       H  0.54674917  0.36015825  0.83555937     0.26600
H1638       H  0.55357730  0.46118768  0.88741070     0.21400
H1639       H  0.64595233  0.42639399  0.86289203     0.26700
H1640       H  0.59587387  0.44216919  0.77240489     0.15500
C1641       C  0.42230509  0.46469759  0.15301150    -0.11800
C1642       C  0.42595637  0.44947769  0.12697553     0.14800
C1643       C  0.41640502  0.44713967  0.08763025     0.01700
C1644       C  0.40356104  0.46017275  0.07502508    -0.16100
C1645       C  0.40027532  0.47569768  0.10043198    -0.10900
C1646       C  0.40949464  0.47773681  0.14041334     0.08400
C1647       C  0.43957818  0.43619279  0.14237661     0.09400
S1648       S  0.41994410  0.42793048  0.05208188    -0.25200
H1649       H  0.39646897  0.45846665  0.04445106     0.19700
S1650       S  0.40511508  0.49623942  0.17753992    -0.30900
H1651       H  0.42939257  0.46632141  0.18361982     0.10000
C1652       C  0.45820345  0.43885814  0.13461341     0.03200
C1653       C  0.47077154  0.42627027  0.15102418    -0.13200
C1654       C  0.46515629  0.41110213  0.17570110    -0.08900
C1655       C  0.44633457  0.40874187  0.18394508     0.06700
C1656       C  0.43381984  0.42113681  0.16667093    -0.14000
S1657       S  0.46589340  0.45817651  0.10315907    -0.30900
H1658       H  0.48506030  0.42821083  0.14425255     0.10900
S1659       S  0.43729680  0.39091355  0.21795177    -0.28000
H1660       H  0.41947280  0.41931835  0.17318649     0.08100
H1661       H  0.38666816  0.49821902  0.16713327     0.26600
H1662       H  0.48459917  0.45477953  0.10735091     0.21400
H1663       H  0.45029266  0.39339678  0.25079000     0.26700
H1664       H  0.43808165  0.42450813  0.06341583     0.15500
C1665       C  0.61265282  0.43058381  0.06126008    -0.11800
C1666       C  0.59753126  0.43877162  0.08139129     0.14800
C1667       C  0.59629474  0.45789486  0.08242660     0.01700
C1668       C  0.61007580  0.46831966  0.06435223    -0.16100
C1669       C  0.62478526  0.46038198  0.04191095    -0.10900
C1670       C  0.62616617  0.44118359  0.04100117     0.08400
C1671       C  0.58329272  0.42750651  0.10232495     0.09400
S1672       S  0.57682190  0.47000937  0.10349026    -0.25200
H1673       H  0.60834703  0.48296235  0.06504732     0.19700
S1674       S  0.64470550  0.42948632  0.01499166    -0.30900
H1675       H  0.61383504  0.41588002  0.06100908     0.10000
C1676       C  0.57201827  0.41581474  0.07813456     0.03200
C1677       C  0.55745601  0.40708688  0.09891428    -0.13200
C1678       C  0.55346617  0.41021776  0.14309429    -0.08900
C1679       C  0.56445575  0.42260548  0.16658448     0.06700
C1680       C  0.57957278  0.43039721  0.14650423    -0.14000
S1681       S  0.57565749  0.41249766  0.02054572    -0.30900
H1682       H  0.54907024  0.39778219  0.08052199     0.10900
S1683       S  0.56014984  0.42927103  0.22199431    -0.28000
H1684       H  0.58806767  0.43961224  0.16499105     0.08100
H1685       H  0.65766967  0.44300200  0.02413511     0.26600
H1686       H  0.56110825  0.40045086  0.01359874     0.21400
H1687       H  0.54233137  0.43507691  0.21305972     0.26700
H1688       H  0.56389624  0.45721435  0.08947663     0.15500
C1689       C  0.58157754  0.44376151  0.36717648    -0.11800
C1690       C  0.59107310  0.42728094  0.36148861     0.14800
C1691       C  0.60977705  0.42669000  0.37115215     0.01700
C1692       C  0.61859840  0.44252191  0.38478450    -0.16100
C1693       C  0.60909697  0.45891016  0.39088746    -0.10900
C1694       C  0.59032645  0.45948702  0.38226332     0.08400
C1695       C  0.58142889  0.41148414  0.34208814     0.09400
S1696       S  0.62298055  0.40602906  0.36844197    -0.25200
H1697       H  0.63293781  0.44184995  0.39252284     0.19700
S1698       S  0.57698363  0.47990253  0.38866872    -0.30900
H1699       H  0.56727440  0.44444319  0.35914342     0.10000
C1700       C  0.56581552  0.40399486  0.36156115     0.03200
C1701       C  0.55540950  0.39131587  0.33845459    -0.13200
C1702       C  0.56015068  0.38597740  0.29593245    -0.08900
C1703       C  0.57704202  0.39186594  0.27869442     0.06700
C1704       C  0.58728792  0.40474561  0.30177312    -0.14000
S1705       S  0.55889966  0.41084748  0.41549642    -0.30900
H1706       H  0.54287044  0.38638261  0.35261985     0.10900
S1707       S  0.58523236  0.38435853  0.22618327    -0.28000
H1708       H  0.59951343  0.41032268  0.28742132     0.08100
H1709       H  0.59120104  0.49221014  0.38044824     0.26600
H1710       H  0.54158925  0.40281138  0.41449538     0.21400
H1711       H  0.60089656  0.39527612  0.22450997     0.26700
H1712       H  0.60859819  0.39423237  0.37903971     0.15500
C1713       C  0.51578072  0.35843595  0.99173914    -0.11800
C1714       C  0.49825695  0.36013591  0.97437847     0.14800
C1715       C  0.48317777  0.35905727  0.00258858     0.01700
C1716       C  0.48592863  0.35682990  0.04729390    -0.16100
C1717       C  0.50347228  0.35615141  0.06528508    -0.10900
C1718       C  0.51863288  0.35677883  0.03676511     0.08400
C1719       C  0.49618573  0.36364430  0.92699959     0.09400
S1720       S  0.46008312  0.36125628  0.98393012    -0.25200
H1721       H  0.47415937  0.35632040  0.06843485     0.19700
S1722       S  0.54170529  0.35670074  0.05676509    -0.30900
H1723       H  0.52728333  0.35901859  0.96981588     0.10000
C1724       C  0.50237451  0.37999996  0.90809160     0.03200
C1725       C  0.50023395  0.38285630  0.86330631    -0.13200
C1726       C  0.49220164  0.36965106  0.83637580    -0.08900
C1727       C  0.48558237  0.35337428  0.85573054     0.06700
C1728       C  0.48775298  0.35057879  0.90068767    -0.14000
S1729       S  0.51291907  0.39741639  0.94098287    -0.30900
H1730       H  0.50541236  0.39529430  0.84903336     0.10900
S1731       S  0.47402929  0.33613887  0.82422965    -0.28000
H1732       H  0.48292802  0.33812733  0.91562057     0.08100
H1733       H  0.55030294  0.36096576  0.01716275     0.26600
H1734       H  0.51889383  0.40849364  0.90645106     0.21400
H1735       H  0.47024791  0.32410619  0.85869800     0.26700
H1736       H  0.46380410  0.37403484  0.95101163     0.15500
C1737       C  0.48246617  0.34984004  0.50235831    -0.11800
C1738       C  0.49648038  0.35525700  0.47429286     0.14800
C1739       C  0.51380245  0.35921211  0.49166898     0.01700
C1740       C  0.51646421  0.35823085  0.53670071    -0.16100
C1741       C  0.50221621  0.35367234  0.56503971    -0.10900
C1742       C  0.48518059  0.34883100  0.54737175     0.08400
C1743       C  0.49234866  0.35760353  0.42755379     0.09400
S1744       S  0.53308766  0.36598171  0.45897516    -0.25200
H1745       H  0.52958629  0.36193830  0.54990544     0.19700
S1746       S  0.46649953  0.34099889  0.58039712    -0.30900
H1747       H  0.46925696  0.34652535  0.48907526     0.10000
C1748       C  0.49508678  0.34351916  0.39728741     0.03200
C1749       C  0.49267931  0.34707444  0.35277725    -0.13200
C1750       C  0.48759646  0.36450134  0.33777136    -0.08900
C1751       C  0.48364890  0.37818645  0.36886510     0.06700
C1752       C  0.48621302  0.37461964  0.41314587    -0.14000
S1753       S  0.50257463  0.32132455  0.41515399    -0.30900
H1754       H  0.49581299  0.33648190  0.32949460     0.10900
S1755       S  0.47537304  0.40048731  0.35456656    -0.28000
H1756       H  0.48374378  0.38533253  0.43662910     0.08100
H1757       H  0.47737996  0.33250137  0.61205926     0.26600
H1758       H  0.50095435  0.31264011  0.37460227     0.21400
H1759       H  0.46423893  0.39409025  0.32085373     0.26700
H1760       H  0.52423541  0.36952745  0.41956001     0.15500
C1761       C  0.83928829  0.02054631  0.73597034    -0.11800
C1762       C  0.84124190  0.00292142  0.71889232     0.14800
C1763       C  0.84171198  0.98800205  0.74778144     0.01700
C1764       C  0.84138371  0.99104316  0.79269094    -0.16100
C1765       C  0.84028199  0.00873091  0.81030331    -0.10900
C1766       C  0.83863748  0.02365341  0.78117663     0.08400
C1767       C  0.84436051  0.00065093  0.67129468     0.09400
S1768       S  0.84306125  0.96472142  0.72940263    -0.25200
H1769       H  0.84223042  0.97935157  0.81411750     0.19700
S1770       S  0.83691466  0.04682834  0.80042439    -0.30900
H1771       H  0.83897520  0.03196545  0.71367031     0.10000
C1772       C  0.83074339  0.00444668  0.64046981     0.03200
C1773       C  0.83463107  0.00268557  0.59591354    -0.13200
C1774       C  0.85198791  0.99748125  0.58101624    -0.08900
C1775       C  0.86533008  0.99288518  0.61227769     0.06700
C1776       C  0.86144025  0.99471061  0.65674510    -0.14000
S1777       S  0.80836970  0.01148031  0.65778207    -0.30900
H1778       H  0.82417861  0.00594219  0.57251349     0.10900
S1779       S  0.88738603  0.98415690  0.59789002    -0.28000
H1780       H  0.87186320  0.99147470  0.68035344     0.08100
H1781       H  0.83305998  0.05493930  0.76000592     0.26600
H1782       H  0.80093946  0.01385301  0.61603502     0.21400
H1783       H  0.88101595  0.97363037  0.56289424     0.26700
H1784       H  0.83384853  0.96754396  0.68995723     0.15500
C1785       C  0.83517935  0.99449512  0.14453618    -0.11800
C1786       C  0.85004036  0.99793756  0.17164077     0.14800
C1787       C  0.86770185  0.99726065  0.15372134     0.01700
C1788       C  0.86997491  0.99473581  0.10883082    -0.16100
C1789       C  0.85504618  0.99220420  0.08088885    -0.10900
C1790       C  0.83742252  0.99134570  0.09987778     0.08400
C1791       C  0.84662601  0.00243012  0.21817569     0.09400
S1792       S  0.88790850  0.99986545  0.18619754    -0.25200
H1793       H  0.88359709  0.99522920  0.09558589     0.19700
S1794       S  0.81702777  0.98674570  0.06953333    -0.30900
H1795       H  0.82161955  0.99451105  0.15826347     0.10000
C1796       C  0.85018609  0.01992200  0.23519070     0.03200
C1797       C  0.84779250  0.02316915  0.27992909    -0.13200
C1798       C  0.84171275  0.00934093  0.30804155    -0.08900
C1799       C  0.83685173  0.99227370  0.29018606     0.06700
C1800       C  0.83953790  0.98895635  0.24576138    -0.14000
S1801       S  0.85774323  0.03812552  0.19992951    -0.30900
H1802       H  0.85134181  0.03630707  0.29335635     0.10900
S1803       S  0.82677934  0.97430972  0.32216177    -0.28000
H1804       H  0.83621077  0.97569383  0.23261255     0.08100
H1805       H  0.82460898  0.97181093  0.04734961     0.26600
H1806       H  0.86011572  0.05129055  0.23259198     0.21400
H1807       H  0.81784795  0.98597695  0.35148284     0.26700
H1808       H  0.88051811  0.99282820  0.22489731     0.15500
C1809       C  0.97676010  0.24291041  0.73741230    -0.11800
C1810       C  0.98968186  0.24837738  0.76825680     0.14800
C1811       C  0.00218143  0.23536205  0.78417639     0.01700
C1812       C  0.00225033  0.21767135  0.76701561    -0.16100
C1813       C  0.98954540  0.21226766  0.73561040    -0.10900
C1814       C  0.97656882  0.22507870  0.72095178     0.08400
C1815       C  0.99040785  0.26789716  0.78140844     0.09400
S1816       S  0.01816615  0.24037671  0.82687824    -0.25200
H1817       H  0.01199999  0.20787687  0.77914209     0.19700
S1818       S  0.95997023  0.21978410  0.67987903    -0.30900
H1819       H  0.96709105  0.25276429  0.72511431     0.10000
C1820       C  0.00490626  0.27928239  0.76860283     0.03200
C1821       C  0.00530442  0.29751417  0.78244082    -0.13200
C1822       C  0.99124065  0.30486729  0.80783227    -0.08900
C1823       C  0.97671453  0.29342727  0.82057386     0.06700
C1824       C  0.97637329  0.27519081  0.80693215    -0.14000
S1825       S  0.02248432  0.27083406  0.73290459    -0.30900
H1826       H  0.01634278  0.30628399  0.77228333     0.10900
S1827       S  0.95863607  0.30105237  0.85568595    -0.28000
H1828       H  0.96524186  0.26649869  0.81699136     0.08100
H1829       H  0.97124014  0.20799741  0.65598758     0.26600
H1830       H  0.03224182  0.28722411  0.72923516     0.21400
H1831       H  0.96957187  0.31264379  0.88087380     0.26700
H1832       H  0.00755235  0.25374992  0.84747358     0.15500
C1833       C  0.89348394  0.09299878  0.85852617    -0.11800
C1834       C  0.91224763  0.09266158  0.85180396     0.14800
C1835       C  0.92225881  0.07719041  0.86542515     0.01700
C1836       C  0.91322991  0.06241884  0.88503360    -0.16100
C1837       C  0.89429349  0.06246461  0.89000621    -0.10900
C1838       C  0.88438464  0.07816545  0.87716903     0.08400
C1839       C  0.92086476  0.10872539  0.83063830     0.09400
S1840       S  0.94645596  0.07528052  0.85772480    -0.25200
H1841       H  0.92095116  0.05058647  0.89514619     0.19700
S1842       S  0.86011613  0.07988853  0.88553489    -0.30900
H1843       H  0.88593625  0.10496936  0.84867121     0.10000
C1844       C  0.91778430  0.11288641  0.78638072     0.03200
C1845       C  0.92753018  0.12711255  0.76656558    -0.13200
C1846       C  0.94046422  0.13715230  0.78993109    -0.08900
C1847       C  0.94199220  0.13421060  0.83530759     0.06700
C1848       C  0.93236481  0.11995578  0.85502796    -0.14000
S1849       S  0.90286844  0.09893476  0.75386524    -0.30900
H1850       H  0.92646664  0.12909340  0.73175789     0.10900
S1851       S  0.95678360  0.14761638  0.86922596    -0.28000
H1852       H  0.93425133  0.11725408  0.88938527     0.08100
H1853       H  0.85832962  0.09844460  0.87495659     0.26600
H1854       H  0.90416298  0.10923785  0.71535941     0.21400
H1855       H  0.95775698  0.16264857  0.84089201     0.26700
H1856       H  0.94728837  0.08566142  0.81932169     0.15500
C1857       C  0.93118048  0.08947926  0.61234441    -0.11800
C1858       C  0.91672026  0.10006733  0.59634542     0.14800
C1859       C  0.91741484  0.11917671  0.60124397     0.01700
C1860       C  0.93268850  0.12720141  0.62018628    -0.16100
C1861       C  0.94714839  0.11666307  0.63628615    -0.10900
C1862       C  0.94634210  0.09754058  0.63214300     0.08400
C1863       C  0.90138536  0.09073398  0.57413198     0.09400
S1864       S  0.89906495  0.13409839  0.58556246    -0.25200
H1865       H  0.93292101  0.14187325  0.62407751     0.19700
S1866       S  0.96445335  0.08281486  0.64990367    -0.30900
H1867       H  0.93078556  0.07480567  0.60867614     0.10000
C1868       C  0.89791660  0.09316584  0.52935141     0.03200
C1869       C  0.88424464  0.08289953  0.50919698    -0.13200
C1870       C  0.87439778  0.06964633  0.53233199    -0.08900
C1871       C  0.87719391  0.06801382  0.57770435     0.06700
C1872       C  0.89062529  0.07850232  0.59797174    -0.14000
S1873       S  0.91215997  0.10777601  0.49662587    -0.30900
H1874       H  0.88251783  0.08392435  0.47436707     0.10900
S1875       S  0.86462854  0.05219882  0.61116145    -0.28000
H1876       H  0.89305050  0.07676739  0.63247132     0.08100
H1877       H  0.97850589  0.09519189  0.64058871     0.26600
H1878       H  0.90189360  0.10668510  0.45824323     0.21400
H1879       H  0.84924972  0.05158235  0.58416550     0.26700
H1880       H  0.88506606  0.12128272  0.59070500     0.15500
C1881       C  0.00751515  0.24020852  0.24121384    -0.11800
C1882       C  0.99153572  0.24833472  0.25667146     0.14800
C1883       C  0.97543359  0.23788828  0.25828048     0.01700
C1884       C  0.97568261  0.21966446  0.24459385    -0.16100
C1885       C  0.99178788  0.21137697  0.23018326    -0.10900
C1886       C  0.00781463  0.22199328  0.22781242     0.08400
C1887       C  0.99203747  0.26780404  0.26991354     0.09400
S1888       S  0.95428066  0.24686426  0.27861584    -0.25200
H1889       H  0.96332464  0.21170564  0.24666476     0.19700
S1890       S  0.02891532  0.21339243  0.20626145    -0.30900
H1891       H  0.01983770  0.24822794  0.23908602     0.10000
C1892       C  0.00175817  0.27349850  0.30694470     0.03200
C1893       C  0.00179603  0.29199531  0.31848340    -0.13200
C1894       C  0.99226887  0.30502568  0.29391603    -0.08900
C1895       C  0.98299389  0.29932631  0.25605416     0.06700
C1896       C  0.98281123  0.28082228  0.24480870    -0.14000
S1897       S  0.01352663  0.25710889  0.34056078    -0.30900
H1898       H  0.00897152  0.29629248  0.34739469     0.10900
S1899       S  0.97190247  0.31504125  0.21964412    -0.28000
H1900       H  0.97564188  0.27654390  0.21583199     0.08100
H1901       H  0.02077888  0.20299484  0.17323650     0.26600
H1902       H  0.02010875  0.26954011  0.37149082     0.21400
H1903       H  0.98509444  0.32879477  0.22362466     0.26700
H1904       H  0.96202114  0.25878350  0.30912362     0.15500
C1905       C  0.92156862  0.08201469  0.36554876    -0.11800
C1906       C  0.91114483  0.09797444  0.36011202     0.14800
C1907       C  0.89234181  0.09723598  0.36865408     0.01700
C1908       C  0.88435406  0.08070757  0.38043245    -0.16100
C1909       C  0.89473284  0.06484242  0.38640086    -0.10900
C1910       C  0.91363284  0.06558225  0.37935277     0.08400
C1911       C  0.91979629  0.11456688  0.34127895     0.09400
S1912       S  0.87790584  0.11707275  0.36717100    -0.25200
H1913       H  0.86990419  0.08045007  0.38716874     0.19700
S1914       S  0.92817348  0.04602742  0.38601809    -0.30900
H1915       H  0.93595503  0.08226852  0.35820559     0.10000
C1916       C  0.93531240  0.12266108  0.35989377     0.03200
C1917       C  0.94480531  0.13604237  0.33651544    -0.13200
C1918       C  0.93933689  0.14136041  0.29463544    -0.08900
C1919       C  0.92258944  0.13495988  0.27869757     0.06700
C1920       C  0.91313810  0.12150624  0.30176349    -0.14000
S1921       S  0.94397745  0.11510249  0.41176162    -0.30900
H1922       H  0.95787766  0.14047765  0.34837413     0.10900
S1923       S  0.91430602  0.14111501  0.22555654    -0.28000
H1924       H  0.90117570  0.11550528  0.28721728     0.08100
H1925       H  0.91484853  0.03287114  0.37700730     0.26600
H1926       H  0.95776284  0.12825272  0.41562772     0.21400
H1927       H  0.92378525  0.15769663  0.22311940     0.26700
H1928       H  0.89145037  0.12949597  0.37964270     0.15500
C1929       C  0.99163551  0.16779037  0.99468435    -0.11800
C1930       C  0.00852980  0.16107019  0.98104844     0.14800
C1931       C  0.02224694  0.15792867  0.01212291     0.01700
C1932       C  0.01843239  0.16062105  0.05625363    -0.16100
C1933       C  0.00110214  0.16610972  0.07029048    -0.10900
C1934       C  0.98785326  0.17055997  0.03877579     0.08400
C1935       C  0.01106164  0.15698078  0.93437299     0.09400
S1936       S  0.04461297  0.14980977  0.99799545    -0.25200
H1937       H  0.02878518  0.15733723  0.07995429     0.19700
S1938       S  0.96603696  0.18009066  0.05254438    -0.30900
H1939       H  0.98124941  0.17070305  0.97073957     0.10000
C1940       C  0.00309632  0.14144316  0.91571936     0.03200
C1941       C  0.00452662  0.13863931  0.87082649    -0.13200
C1942       C  0.01362381  0.15115983  0.84384804    -0.08900
C1943       C  0.02254378  0.16622147  0.86317195     0.06700
C1944       C  0.02104719  0.16898923  0.90823756    -0.14000
S1945       S  0.99082401  0.12531092  0.94911583    -0.30900
H1946       H  0.99777004  0.12703661  0.85648176     0.10900
S1947       S  0.03616813  0.18180982  0.83134247    -0.28000
H1948       H  0.02740728  0.18067379  0.92324900     0.08100
H1949       H  0.97231288  0.18973015  0.08906298     0.26600
H1950       H  0.98516654  0.11380762  0.91522076     0.21400
H1951       H  0.04129874  0.19336119  0.86561638     0.26700
H1952       H  0.03962896  0.14018872  0.96044142     0.15500
C1953       C  0.01438250  0.14768376  0.50639368    -0.11800
C1954       C  0.01392683  0.16365652  0.48145156     0.14800
C1955       C  0.00973085  0.18033723  0.50241413     0.01700
C1956       C  0.00529431  0.18047212  0.54689507    -0.16100
C1957       C  0.00563191  0.16440296  0.57157617    -0.10900
C1958       C  0.01044833  0.14786258  0.55085186     0.08400
C1959       C  0.01470450  0.16185297  0.43315548     0.09400
S1960       S  0.01012839  0.20192290  0.47436574    -0.25200
H1961       H  0.00204605  0.19327128  0.56259438     0.19700
S1962       S  0.01104532  0.12621047  0.57852264    -0.30900
H1963       H  0.01704241  0.13474755  0.49068707     0.10000
C1964       C  0.02908910  0.15300006  0.41099503     0.03200
C1965       C  0.02747262  0.14927564  0.36614951    -0.13200
C1966       C  0.01183596  0.15435435  0.34311221    -0.08900
C1967       C  0.99812311  0.16433410  0.36493802     0.06700
C1968       C  0.99954712  0.16756214  0.40942950    -0.14000
S1969       S  0.04940812  0.14634127  0.43968231    -0.30900
H1970       H  0.03802906  0.14178000  0.34941127     0.10900
S1971       S  0.97826995  0.17348567  0.33850180    -0.28000
H1972       H  0.98842394  0.17429520  0.42600183     0.08100
H1973       H  0.99674431  0.12993140  0.60730155     0.26600
H1974       H  0.05870881  0.13920361  0.40353672     0.21400
H1975       H  0.98541445  0.17367599  0.29646076     0.26700
H1976       H  0.02281931  0.19667610  0.44254285     0.15500
C1977       C  0.89613470  0.08844812  0.05453749    -0.11800
C1978       C  0.90748875  0.07917750  0.08400483     0.14800
C1979       C  0.90292746  0.06117345  0.09595472     0.01700
C1980       C  0.88781705  0.05283656  0.07746697    -0.16100
C1981       C  0.87772167  0.06119703  0.04390548    -0.10900
C1982       C  0.88143873  0.07967427  0.03423481     0.08400
C1983       C  0.92335131  0.08871326  0.10371561     0.09400
S1984       S  0.91666479  0.04727678  0.13157768    -0.25200
H1985       H  0.88510969  0.03885113  0.08674663     0.19700
S1986       S  0.86813540  0.09280822  0.99656445    -0.30900
H1987       H  0.89889806  0.10258042  0.04681155     0.10000
C1988       C  0.93736778  0.09660444  0.07835575     0.03200
C1989       C  0.95175980  0.10572439  0.09914210    -0.13200
C1990       C  0.95299690  0.10615793  0.14463905    -0.08900
C1991       C  0.93961505  0.09721042  0.16965237     0.06700
C1992       C  0.92465888  0.08937577  0.14918578    -0.14000
S1993       S  0.93719063  0.09487976  0.01974521    -0.30900
H1994       H  0.96187924  0.11285088  0.08004022     0.10900
S1995       S  0.94063568  0.09557568  0.22802199    -0.28000
H1996       H  0.91404298  0.08340448  0.16903814     0.08100
H1997       H  0.85162464  0.08437416  0.00774271     0.26600
H1998       H  0.95352764  0.10429683  0.01226828     0.21400
H1999       H  0.95964686  0.09425312  0.22994775     0.26700
H2000       H  0.93339815  0.05444575  0.11766048     0.15500
C2001       C  0.99897082  0.73941520  0.75311583    -0.11800
C2002       C  0.01524940  0.74926202  0.74994202     0.14800
C2003       C  0.03076896  0.74035829  0.73306557     0.01700
C2004       C  0.02990154  0.72180543  0.72223270    -0.16100
C2005       C  0.01361064  0.71188879  0.72563875    -0.10900
C2006       C  0.99777680  0.72127581  0.73935142     0.08400
C2007       C  0.01568832  0.76850753  0.76575636     0.09400
S2008       S  0.05197162  0.75197351  0.72353380    -0.25200
H2009       H  0.04209396  0.71511072  0.71069728     0.19700
S2010       S  0.97535495  0.71156965  0.73689127    -0.30900
H2011       H  0.98689970  0.74608014  0.76547991     0.10000
C2012       C  0.00364658  0.78191269  0.74960933     0.03200
C2013       C  0.00388096  0.79951630  0.76741827    -0.13200
C2014       C  0.01650643  0.80443505  0.79940146    -0.08900
C2015       C  0.02859304  0.79109679  0.81543254     0.06700
C2016       C  0.02796523  0.77333441  0.79875391    -0.14000
S2017       S  0.98861110  0.77703775  0.70472647    -0.30900
H2018       H  0.99451141  0.80971867  0.75547514     0.10900
S2019       S  0.04456625  0.79567006  0.85837597    -0.28000
H2020       H  0.03701011  0.76309952  0.81200106     0.08100
H2021       H  0.97822676  0.70289885  0.69667667     0.26600
H2022       H  0.98114777  0.79459996  0.70076347     0.21400
H2023       H  0.03352407  0.80821742  0.88058511     0.26700
H2024       H  0.04417846  0.76898854  0.71381500     0.15500
C2025       C  0.91130193  0.94437469  0.87806623    -0.11800
C2026       C  0.92838830  0.94527321  0.89831746     0.14800
C2027       C  0.93154695  0.95912997  0.92920696     0.01700
C2028       C  0.91791441  0.97187511  0.93828458    -0.16100
C2029       C  0.90081441  0.97101272  0.91819208    -0.10900
C2030       C  0.89755906  0.95705639  0.88756606     0.08400
C2031       C  0.94301837  0.93242272  0.88469174     0.09400
S2032       S  0.95258337  0.96113385  0.95875419    -0.25200
H2033       H  0.92057391  0.98239179  0.96213330     0.19700
S2034       S  0.87665364  0.95543970  0.85759685    -0.30900
H2035       H  0.90883083  0.93400774  0.85374088     0.10000
C2036       C  0.94162603  0.91347190  0.89160400     0.03200
C2037       C  0.95572063  0.90194714  0.87770675    -0.13200
C2038       C  0.97139513  0.90888255  0.85743072    -0.08900
C2039       C  0.97276377  0.92791333  0.85071582     0.06700
C2040       C  0.95866213  0.93938582  0.86447524    -0.14000
S2041       S  0.92222389  0.90397119  0.91953054    -0.30900
H2042       H  0.95462749  0.88740921  0.88311073     0.10900
S2043       S  0.99164609  0.93837542  0.82298033    -0.28000
H2044       H  0.95975606  0.95391742  0.85875177     0.08100
H2045       H  0.87482979  0.97435036  0.85191914     0.26600
H2046       H  0.92835778  0.88582681  0.92042911     0.21400
H2047       H  0.99286281  0.92494188  0.79053415     0.26700
H2048       H  0.95651562  0.94239447  0.95958605     0.15500
C2049       C  0.99319841  0.77400033  0.28103537    -0.11800
C2050       C  0.00964623  0.76434199  0.28079140     0.14800
C2051       C  0.02556458  0.77350381  0.29440904     0.01700
C2052       C  0.02481780  0.79205709  0.30530576    -0.16100
C2053       C  0.00831611  0.80169670  0.30590836    -0.10900
C2054       C  0.99220876  0.79216870  0.29467060     0.08400
C2055       C  0.00989135  0.74519175  0.26393608     0.09400
S2056       S  0.04714508  0.76217457  0.30040222    -0.25200
H2057       H  0.03722135  0.79886632  0.31488819     0.19700
S2058       S  0.96983370  0.80207918  0.29648410    -0.30900
H2059       H  0.98091172  0.76735818  0.27004731     0.10000
C2060       C  0.99781625  0.73165885  0.27954665     0.03200
C2061       C  0.99810592  0.71417395  0.26103642    -0.13200
C2062       C  0.01099319  0.70937728  0.22942480    -0.08900
C2063       C  0.02302192  0.72281915  0.21376691     0.06700
C2064       C  0.02212453  0.74055354  0.23051820    -0.14000
S2065       S  0.98282047  0.73604193  0.32496392    -0.30900
H2066       H  0.98873718  0.70388751  0.27257285     0.10900
S2067       S  0.03944302  0.71835041  0.17159408    -0.28000
H2068       H  0.03108298  0.75086509  0.21728990     0.08100
H2069       H  0.97462232  0.81764506  0.27290213     0.26600
H2070       H  0.97563874  0.71835573  0.32860152     0.21400
H2071       H  0.02892225  0.70540476  0.14935892     0.26700
H2072       H  0.03982408  0.74514110  0.31191167     0.15500
C2073       C  0.90503469  0.94413052  0.38504229    -0.11800
C2074       C  0.92328828  0.94576869  0.39732278     0.14800
C2075       C  0.92880607  0.96120439  0.42121023     0.01700
C2076       C  0.91611203  0.97468598  0.43170719    -0.16100
C2077       C  0.89780112  0.97310095  0.41960175    -0.10900
C2078       C  0.89231838  0.95762531  0.39557953     0.08400
C2079       C  0.93654130  0.93201341  0.38174262     0.09400
S2080       S  0.95182060  0.96443900  0.43954730    -0.25200
H2081       H  0.92054342  0.98638305  0.45033228     0.19700
S2082       S  0.86971578  0.95499999  0.37452024    -0.30900
H2083       H  0.90080088  0.93253277  0.36579840     0.10000
C2084       C  0.93639393  0.91389418  0.39706926     0.03200
C2085       C  0.94936392  0.90148640  0.38139235    -0.13200
C2086       C  0.96259550  0.90687473  0.35104365    -0.08900
C2087       C  0.96244554  0.92495522  0.33518068     0.06700
C2088       C  0.94954031  0.93729139  0.35085140    -0.14000
S2089       S  0.92022333  0.90679694  0.43791353    -0.30900
H2090       H  0.94949741  0.88762784  0.39354753     0.10900
S2091       S  0.97785100  0.93294258  0.29373238    -0.28000
H2092       H  0.94949535  0.95113780  0.33852892     0.08100
H2093       H  0.86922499  0.97281111  0.35778821     0.26600
H2094       H  0.92635479  0.88871954  0.44178631     0.21400
H2095       H  0.97800830  0.91657242  0.27004264     0.26700
H2096       H  0.95596152  0.94584822  0.44428433     0.15500
C2097       C  0.00328907  0.84971540  0.62719416    -0.11800
C2098       C  0.99581749  0.86349201  0.60143881     0.14800
C2099       C  0.98814533  0.87898658  0.62160242     0.01700
C2100       C  0.98822312  0.88029365  0.66714162    -0.16100
C2101       C  0.99612822  0.86660910  0.69288450    -0.10900
C2102       C  0.00409303  0.85134206  0.67219730     0.08400
C2103       C  0.99669966  0.86107664  0.55376506     0.09400
S2104       S  0.97841014  0.89759850  0.59123752    -0.25200
H2105       H  0.98229946  0.89216155  0.68253369     0.19700
S2106       S  0.01698113  0.83415419  0.70033501    -0.30900
H2107       H  0.00929938  0.83787771  0.61179575     0.10000
C2108       C  0.01354910  0.86034176  0.53200034     0.03200
C2109       C  0.01403021  0.85644849  0.48748292    -0.13200
C2110       C  0.99802035  0.85321791  0.46402699    -0.08900
C2111       C  0.98115505  0.85361648  0.48626001     0.06700
C2112       C  0.98069032  0.85771016  0.53067426    -0.14000
S2113       S  0.03445265  0.86503333  0.56052907    -0.30900
H2114       H  0.02693000  0.85658120  0.47054510     0.10900
S2115       S  0.95984633  0.84832627  0.46048835    -0.28000
H2116       H  0.96779045  0.85778374  0.54768227     0.08100
H2117       H  0.02564305  0.84639656  0.72843501     0.26600
H2118       H  0.04627899  0.85982709  0.52682561     0.21400
H2119       H  0.96707607  0.83465721  0.43350236     0.26700
H2120       H  0.98955205  0.89574320  0.55437181     0.15500
C2121       C  0.99501627  0.84012678  0.12908856    -0.11800
C2122       C  0.99223457  0.85470663  0.10063162     0.14800
C2123       C  0.98611376  0.87153001  0.11754271     0.01700
C2124       C  0.98309718  0.87336169  0.16238499    -0.16100
C2125       C  0.98682856  0.85901658  0.19141406    -0.10900
C2126       C  0.99308691  0.84223738  0.17396636     0.08400
C2127       C  0.99562979  0.85184623  0.05354433     0.09400
S2128       S  0.98289315  0.89144715  0.08404189    -0.25200
H2129       H  0.97865538  0.88641667  0.17487682     0.19700
S2130       S  0.00129232  0.82370509  0.20656821    -0.30900
H2131       H  0.99970203  0.82719684  0.11631395     0.10000
C2132       C  0.01308125  0.84776673  0.03699912     0.03200
C2133       C  0.01563767  0.84625993  0.99192187    -0.13200
C2134       C  0.00107787  0.84829242  0.96289304    -0.08900
C2135       C  0.98335602  0.85079531  0.98011440     0.06700
C2136       C  0.98094666  0.85291180  0.02488683    -0.14000
S2137       S  0.03235233  0.84523338  0.07269423    -0.30900
H2138       H  0.02919073  0.84421553  0.97919515     0.10900
S2139       S  0.96309806  0.85101691  0.94728763    -0.28000
H2140       H  0.96742693  0.85528237  0.03764414     0.08100
H2141       H  0.01354031  0.83494305  0.22902243     0.26600
H2142       H  0.04511227  0.84038094  0.04067636     0.21400
H2143       H  0.96907282  0.83706212  0.91937838     0.26700
H2144       H  0.99693186  0.88747747  0.05450342     0.15500
C2145       C  0.06521070  0.09417788  0.67920098    -0.11800
C2146       C  0.05982634  0.08152448  0.64769676     0.14800
C2147       C  0.04167250  0.08151676  0.63314626     0.01700
C2148       C  0.02936812  0.09405856  0.65050922    -0.16100
C2149       C  0.03483248  0.10715305  0.68114123    -0.10900
C2150       C  0.05299527  0.10689814  0.69615368     0.08400
C2151       C  0.07325963  0.06794509  0.63251973     0.09400
S2152       S  0.03346247  0.06621424  0.59178247    -0.25200
H2153       H  0.01549120  0.09390592  0.63890919     0.19700
S2154       S  0.06131885  0.12164529  0.73843789    -0.30900
H2155       H  0.07902398  0.09390501  0.69127745     0.10000
C2156       C  0.08888627  0.07322275  0.60935810     0.03200
C2157       C  0.10155240  0.05999199  0.59691707    -0.13200
C2158       C  0.09895643  0.04145598  0.60681367    -0.08900
C2159       C  0.08316158  0.03620506  0.63023737     0.06700
C2160       C  0.07060007  0.04955707  0.64288362    -0.14000
S2161       S  0.09239338  0.09673686  0.59407579    -0.30900
H2162       H  0.11338355  0.06412499  0.57850047     0.10900
S2163       S  0.07890351  0.01282452  0.64594308    -0.28000
H2164       H  0.05868073  0.04575531  0.66141640     0.08100
H2165       H  0.04582786  0.11968161  0.76486634     0.26600
H2166       H  0.11014176  0.09463003  0.57792860     0.21400
H2167       H  0.06110250  0.01532867  0.66142258     0.26700
H2168       H  0.04996742  0.06480609  0.56902157     0.15500
C2169       C  0.09195800  0.89763897  0.73238946    -0.11800
C2170       C  0.08531890  0.90365051  0.69205933     0.14800
C2171       C  0.07075902  0.89420339  0.67276876     0.01700
C2172       C  0.06145662  0.88103866  0.69695838    -0.16100
C2173       C  0.06632820  0.87701562  0.74022971    -0.10900
C2174       C  0.08285822  0.88411477  0.75619330     0.08400
C2175       C  0.09336717  0.92015689  0.67184542     0.09400
S2176       S  0.06250025  0.89930544  0.61890157    -0.25200
H2177       H  0.04918666  0.87521931  0.68339862     0.19700
S2178       S  0.09222137  0.87770360  0.80792017    -0.30900
H2179       H  0.10378830  0.90413514  0.74636052     0.10000
C2180       C  0.08343319  0.93653757  0.66696180     0.03200
C2181       C  0.09160915  0.95165865  0.64667639    -0.13200
C2182       C  0.10971095  0.95089370  0.63283316    -0.08900
C2183       C  0.11973434  0.93459910  0.63880542     0.06700
C2184       C  0.11140933  0.91943868  0.65793238    -0.14000
S2185       S  0.06070273  0.93849193  0.68856619    -0.30900
H2186       H  0.08413642  0.96425615  0.64279738     0.10900
S2187       S  0.14307651  0.93271071  0.62102538    -0.28000
H2188       H  0.11891864  0.90687070  0.66197061     0.08100
H2189       H  0.08733917  0.85926189  0.80396927     0.26600
H2190       H  0.05761411  0.95656005  0.67522170     0.21400
H2191       H  0.14621308  0.91490133  0.63616299     0.26700
H2192       H  0.07901445  0.90596762  0.60239445     0.15500
C2193       C  0.09457787  0.94761465  0.44641794    -0.11800
C2194       C  0.09889789  0.92929704  0.44054735     0.14800
C2195       C  0.11591094  0.92283942  0.45575565     0.01700
C2196       C  0.12763870  0.93471617  0.47843653    -0.16100
C2197       C  0.12317914  0.95317829  0.48431707    -0.10900
C2198       C  0.10629070  0.95958615  0.46749182     0.08400
C2199       C  0.08460323  0.91782138  0.41971479     0.09400
S2200       S  0.12364841  0.89988494  0.44635464    -0.25200
H2201       H  0.14043621  0.92961346  0.49075553     0.19700
S2202       S  0.09802512  0.98260092  0.47535439    -0.30900
H2203       H  0.08147160  0.95249200  0.43548222     0.10000
C2204       C  0.07501917  0.90437180  0.44307207     0.03200
C2205       C  0.05988079  0.89589282  0.42401375    -0.13200
C2206       C  0.05345749  0.90092015  0.38245685    -0.08900
C2207       C  0.06282881  0.91491140  0.35965439     0.06700
C2208       C  0.07834151  0.92286369  0.37827096    -0.14000
S2209       S  0.08127753  0.89876183  0.49827690    -0.30900
H2210       H  0.05282740  0.88539484  0.44208967     0.10900
S2211       S  0.05543194  0.92310966  0.30706328    -0.28000
H2212       H  0.08547022  0.93354695  0.36095492     0.08100
H2213       H  0.08561693  0.98272871  0.44061533     0.26600
H2214       H  0.06786489  0.88548543  0.50543141     0.21400
H2215       H  0.06721883  0.93812252  0.30421888     0.26700
H2216       H  0.11266023  0.89651016  0.40994279     0.15500
C2217       C  0.08631149  0.05680212  0.16608795    -0.11800
C2218       C  0.07367111  0.06428517  0.13702964     0.14800
C2219       C  0.07372224  0.05828157  0.09337224     0.01700
C2220       C  0.08675480  0.04559269  0.07949722    -0.16100
C2221       C  0.09965853  0.03831806  0.10837681    -0.10900
C2222       C  0.09891902  0.04364997  0.15263855     0.08400
C2223       C  0.06112881  0.07879566  0.15278749     0.09400
S2224       S  0.05749087  0.06625343  0.05382697    -0.25200
H2225       H  0.08688732  0.04147266  0.04567970     0.19700
S2226       S  0.11301457  0.03366969  0.19418311    -0.30900
H2227       H  0.08623273  0.06113624  0.19976010     0.10000
C2228       C  0.04770444  0.07529545  0.18441974     0.03200
C2229       C  0.03620850  0.08945490  0.19815624    -0.13200
C2230       C  0.03779728  0.10728599  0.18139660    -0.08900
C2231       C  0.05172628  0.11075727  0.15045404     0.06700
C2232       C  0.06295767  0.09651216  0.13627841    -0.14000
S2233       S  0.04467202  0.05260973  0.20612875    -0.30900
H2234       H  0.02569992  0.08646699  0.22170851     0.10900
S2235       S  0.05640109  0.13298104  0.12828528    -0.28000
H2236       H  0.07347623  0.09932483  0.11253326     0.08100
H2237       H  0.11283195  0.01603778  0.17645815     0.26600
H2238       H  0.03067962  0.05686573  0.23558371     0.21400
H2239       H  0.05678301  0.14146829  0.16927227     0.26700
H2240       H  0.04321465  0.06907857  0.08346138     0.15500
C2241       C  0.06037670  0.89756909  0.17139720    -0.11800
C2242       C  0.07590324  0.90458334  0.19154485     0.14800
C2243       C  0.08198103  0.89640676  0.23069431     0.01700
C2244       C  0.07135127  0.88295382  0.25085447    -0.16100
C2245       C  0.05506059  0.87695992  0.23203086    -0.10900
C2246       C  0.05047645  0.88333725  0.18997648     0.08400
C2247       C  0.08447662  0.92114416  0.17232894     0.09400
S2248       S  0.10260701  0.90310863  0.25776788    -0.25200
H2249       H  0.07517073  0.87817992  0.28291227     0.19700
S2250       S  0.03129281  0.87431279  0.16058213    -0.30900
H2251       H  0.05551738  0.90378965  0.14170422     0.10000
C2252       C  0.08917416  0.92203078  0.12779330     0.03200
C2253       C  0.09672954  0.93802163  0.11101725    -0.13200
C2254       C  0.10053620  0.95296898  0.13775398    -0.08900
C2255       C  0.09555970  0.95236219  0.18201726     0.06700
C2256       C  0.08713386  0.93665773  0.19845599    -0.14000
S2257       S  0.08744466  0.90241766  0.09258256    -0.30900
H2258       H  0.10101416  0.93838763  0.07729472     0.10900
S2259       S  0.10063172  0.97042072  0.21984420    -0.28000
H2260       H  0.08310060  0.93634382  0.23231134     0.08100
H2261       H  0.03371179  0.88433104  0.12197994     0.26600
H2262       H  0.08737110  0.91232134  0.05338175     0.21400
H2263       H  0.10472865  0.98395620  0.18917347     0.26700
H2264       H  0.11184649  0.90835960  0.21971285     0.15500
C2265       C  0.16232549  0.00489867  0.87634271    -0.11800
C2266       C  0.15245344  0.01692645  0.85012653     0.14800
C2267       C  0.13963395  0.02865898  0.87006411     0.01700
C2268       C  0.13638441  0.02738702  0.91506741    -0.16100
C2269       C  0.14566682  0.01465457  0.94084498    -0.10900
C2270       C  0.15907991  0.00349963  0.92104866     0.08400
C2271       C  0.15399055  0.01480752  0.80201005     0.09400
S2272       S  0.12659096  0.04508741  0.83966356    -0.25200
H2273       H  0.12602855  0.03588891  0.92974231     0.19700
S2274       S  0.17249967  0.98672066  0.94965594    -0.30900
H2275       H  0.17205322  0.99575793  0.86136326     0.10000
C2276       C  0.17040248  0.01777682  0.77915211     0.03200
C2277       C  0.17131628  0.01406547  0.73417495    -0.13200
C2278       C  0.15611751  0.00753542  0.71154751    -0.08900
C2279       C  0.13968373  0.00481635  0.73462064     0.06700
C2280       C  0.13892462  0.00816123  0.77933724    -0.14000
S2281       S  0.18995081  0.02689730  0.80692876    -0.30900
H2282       H  0.18374219  0.01663287  0.71635074     0.10900
S2283       S  0.11920066  0.99656392  0.70950629    -0.28000
H2284       H  0.12639005  0.00553096  0.79676255     0.08100
H2285       H  0.16306792  0.98647629  0.98894250     0.26600
H2286       H  0.20143645  0.02772296  0.77040051     0.21400
H2287       H  0.12082650  0.00676031  0.67117182     0.26700
H2288       H  0.13927352  0.04730283  0.80586001     0.15500
C2289       C  0.15478710  0.99662644  0.29184125    -0.11800
C2290       C  0.15277516  0.01494064  0.30354242     0.14800
C2291       C  0.15422011  0.02847958  0.27109865     0.01700
C2292       C  0.15694648  0.02336210  0.22760704    -0.16100
C2293       C  0.15789762  0.00491658  0.21528927    -0.10900
C2294       C  0.15755440  0.99146959  0.24855047     0.08400
C2295       C  0.14913315  0.01923440  0.34990452     0.09400
S2296       S  0.15194911  0.05242819  0.28277938    -0.25200
H2297       H  0.15727647  0.03390935  0.20293547     0.19700
S2298       S  0.16089518  0.96750786  0.23859212    -0.30900
H2299       H  0.15416703  0.98620893  0.31683733     0.10000
C2300       C  0.13209104  0.01556386  0.36875580     0.03200
C2301       C  0.12966106  0.01789479  0.41365205    -0.13200
C2302       C  0.14395279  0.02371264  0.44066981    -0.08900
C2303       C  0.16066962  0.02866497  0.42079722     0.06700
C2304       C  0.16310966  0.02611435  0.37595709    -0.14000
S2305       S  0.11351831  0.00751172  0.33562860    -0.30900
H2306       H  0.11670749  0.01434290  0.42795624     0.10900
S2307       S  0.17948394  0.03820339  0.45035347    -0.28000
H2308       H  0.17613018  0.02926865  0.36129035     0.08100
H2309       H  0.17457044  0.97020263  0.20722253     0.26600
H2310       H  0.10076578  0.00559539  0.36941730     0.21400
H2311       H  0.16849570  0.04956881  0.47615886     0.26700
H2312       H  0.13980911  0.05048324  0.31777168     0.15500
C2313       C  0.11858302  0.91380238  0.98834005    -0.11800
C2314       C  0.11311112  0.91921016  0.94650906     0.14800
C2315       C  0.12233119  0.93382003  0.92616019     0.01700
C2316       C  0.13440965  0.94442348  0.95046108    -0.16100
C2317       C  0.13784681  0.94043255  0.99429639    -0.10900
C2318       C  0.13123760  0.92398312  0.01184225     0.08400
C2319       C  0.09610288  0.91138434  0.92822687     0.09400
S2320       S  0.11815566  0.94047852  0.87059702    -0.25200
H2321       H  0.13951534  0.95700335  0.93657819     0.19700
S2322       S  0.13632996  0.91693837  0.06666194    -0.30900
H2323       H  0.11199873  0.90238680  0.00413398     0.10000
C2324       C  0.09363457  0.89246265  0.92352617     0.03200
C2325       C  0.07681660  0.88579943  0.90942163    -0.13200
C2326       C  0.06251843  0.89758927  0.89800127    -0.08900
C2327       C  0.06496132  0.91652021  0.90286164     0.06700
C2328       C  0.08158685  0.92316967  0.91830206    -0.14000
S2329       S  0.11222701  0.87680969  0.93229563    -0.30900
H2330       H  0.07514076  0.87128142  0.90478304     0.10900
S2331       S  0.04729659  0.93278798  0.89119144    -0.28000
H2332       H  0.08317175  0.93770317  0.92302777     0.08100
H2333       H  0.15250111  0.92698759  0.07001269     0.26600
H2334       H  0.10237388  0.86066509  0.92552535     0.21400
H2335       H  0.03278890  0.92115846  0.90187885     0.26700
H2336       H  0.11234570  0.92321294  0.85658406     0.15500
C2337       C  0.77341152  0.03581397  0.52248433    -0.11800
C2338       C  0.76036431  0.02580358  0.49958593     0.14800
C2339       C  0.76565407  0.01575437  0.46263238     0.01700
C2340       C  0.78381572  0.01601224  0.44933940    -0.16100
C2341       C  0.79702687  0.02589395  0.47233880    -0.10900
C2342       C  0.79166959  0.03582854  0.50968539     0.08400
C2343       C  0.74138912  0.02599066  0.51526171     0.09400
S2344       S  0.74995477  0.00239677  0.43088940    -0.25200
H2345       H  0.78767913  0.00832081  0.42072189     0.19700
S2346       S  0.80735835  0.04818691  0.54356963    -0.30900
H2347       H  0.76936533  0.04340241  0.55111612     0.10000
C2348       C  0.73580272  0.01466431  0.54972269     0.03200
C2349       C  0.71763433  0.01499166  0.56324535    -0.13200
C2350       C  0.70482517  0.02635649  0.54286685    -0.08900
C2351       C  0.71047097  0.03740857  0.50753607     0.06700
C2352       C  0.72870599  0.03726804  0.49458614    -0.14000
S2353       S  0.75176126  0.99950778  0.57583467    -0.30900
H2354       H  0.71341287  0.00642365  0.59009525     0.10900
S2355       S  0.69506955  0.05124709  0.47612336    -0.28000
H2356       H  0.73299217  0.04571303  0.46752461     0.08100
H2357       H  0.82150014  0.03542195  0.54048181     0.26600
H2358       H  0.73910831  0.99045692  0.60249126     0.21400
H2359       H  0.68095337  0.03835395  0.47577710     0.26700
H2360       H  0.73773488  0.99833082  0.46462604     0.15500
C2361       C  0.72810767  0.03428380  0.99064819    -0.11800
C2362       C  0.74069829  0.02366254  0.01387088     0.14800
C2363       C  0.73450827  0.01352484  0.05009434     0.01700
C2364       C  0.71621820  0.01449120  0.06262951    -0.16100
C2365       C  0.70355817  0.02504877  0.03942404    -0.10900
C2366       C  0.70965188  0.03478040  0.00236707     0.08400
C2367       C  0.76013920  0.02338644  0.99982456     0.09400
S2368       S  0.74918713  0.99884267  0.08136075    -0.25200
H2369       H  0.71181189  0.00678944  0.09083516     0.19700
S2370       S  0.69446003  0.04719163  0.96724926    -0.30900
H2371       H  0.73264448  0.04195800  0.96252333     0.10000
C2372       C  0.76555805  0.01546504  0.96005156     0.03200
C2373       C  0.78409668  0.01476232  0.94901911    -0.13200
C2374       C  0.79749441  0.02203788  0.97648606    -0.08900
C2375       C  0.79197593  0.03012898  0.01612606     0.06700
C2376       C  0.77349596  0.03061917  0.02739650    -0.14000
S2377       S  0.74895168  0.00553731  0.92403128    -0.30900
H2378       H  0.78820583  0.00852140  0.91868772     0.10900
S2379       S  0.80799943  0.03876526  0.05506582    -0.28000
H2380       H  0.76948191  0.03657654  0.05816567     0.08100
H2381       H  0.68045044  0.03418301  0.96921053     0.26600
H2382       H  0.76106977  0.00079246  0.89052024     0.21400
H2383       H  0.81353337  0.05313739  0.02780760     0.26700
H2384       H  0.76042705  0.99368628  0.04650098     0.15500
C2385       C  0.65418562  0.99009647  0.77030377    -0.11800
C2386       C  0.65331033  0.00542913  0.79722982     0.14800
C2387       C  0.65654228  0.02284524  0.77930946     0.01700
C2388       C  0.65903627  0.02468634  0.73451942    -0.16100
C2389       C  0.65902569  0.00945067  0.70698478    -0.10900
C2390       C  0.65732002  0.99185676  0.72562786     0.08400
C2391       C  0.64889846  0.00287796  0.84374908     0.09400
S2392       S  0.65738048  0.04329841  0.81156057    -0.25200
H2393       H  0.66049476  0.03825197  0.72101105     0.19700
S2394       S  0.65928395  0.97111185  0.69470647    -0.30900
H2395       H  0.65230398  0.97665041  0.78421398     0.10000
C2396       C  0.63237822  0.00904065  0.86144961     0.03200
C2397       C  0.62958364  0.00800529  0.90646758    -0.13200
C2398       C  0.64291375  0.00074230  0.93429414    -0.08900
C2399       C  0.65889791  0.99318980  0.91572330     0.06700
C2400       C  0.66169358  0.99448501  0.87071161    -0.14000
S2401       S  0.61490454  0.01833459  0.82669550    -0.30900
H2402       H  0.61722437  0.01355059  0.92012195     0.10900
S2403       S  0.67590904  0.98178063  0.94830720    -0.28000
H2404       H  0.67411758  0.98937950  0.85638098     0.08100
H2405       H  0.67319438  0.97771043  0.66749988     0.26600
H2406       H  0.60259501  0.02294120  0.85990572     0.21400
H2407       H  0.68759325  0.97679039  0.91412902     0.26700
H2408       H  0.66374072  0.03495280  0.84978144     0.15500
C2409       C  0.66606661  0.00173355  0.36894217    -0.11800
C2410       C  0.65080088  0.00404968  0.34254347     0.14800
C2411       C  0.63341260  0.00449274  0.36161595     0.01700
C2412       C  0.63173751  0.00365051  0.40686627    -0.16100
C2413       C  0.64705201  0.00212989  0.43403846    -0.10900
C2414       C  0.66451067  0.00076113  0.41438159     0.08400
C2415       C  0.65360636  0.00683664  0.29540401     0.09400
S2416       S  0.61287323  0.00677670  0.33015909    -0.25200
H2417       H  0.61828109  0.00459350  0.42088053     0.19700
S2418       S  0.68514421  0.99824637  0.44577421    -0.30900
H2419       H  0.67930171  0.00115655  0.35370385     0.10000
C2420       C  0.65276387  0.02434018  0.27671186     0.03200
C2421       C  0.65513516  0.02633687  0.23171280    -0.13200
C2422       C  0.65813391  0.01114046  0.20494339    -0.08900
C2423       C  0.65953423  0.99364330  0.22407116     0.06700
C2424       C  0.65734738  0.99172923  0.26916485    -0.14000
S2425       S  0.64849765  0.04409664  0.31017131    -0.30900
H2426       H  0.65394974  0.03970778  0.21708895     0.10900
S2427       S  0.66446626  0.97371703  0.19164948    -0.28000
H2428       H  0.65823586  0.97840436  0.28413774     0.08100
H2429       H  0.69758118  0.00016178  0.41132723     0.26600
H2430       H  0.64809992  0.05695044  0.27621209     0.21400
H2431       H  0.66507552  0.96110087  0.22608516     0.26700
H2432       H  0.61943858  0.99833057  0.29230422     0.15500
C2433       C  0.52654777  0.28771354  0.78146848    -0.11800
C2434       C  0.51844591  0.27418640  0.75587083     0.14800
C2435       C  0.50936760  0.27926640  0.71726886     0.01700
C2436       C  0.50897784  0.29761133  0.70469955    -0.16100
C2437       C  0.51713100  0.31117816  0.73020618    -0.10900
C2438       C  0.52578208  0.30610705  0.76943720     0.08400
C2439       C  0.51861157  0.25512608  0.77187708     0.09400
S2440       S  0.49789238  0.26309051  0.68279495    -0.25200
H2441       H  0.50220002  0.30133499  0.67471904     0.19700
S2442       S  0.53513835  0.32247460  0.80682585    -0.30900
H2443       H  0.53313067  0.28393585  0.81165759     0.10000
C2444       C  0.52955139  0.24154387  0.75284728     0.03200
C2445       C  0.52822761  0.22346487  0.76779378    -0.13200
C2446       C  0.51637391  0.21873960  0.80196087    -0.08900
C2447       C  0.50634276  0.23277448  0.82266515     0.06700
C2448       C  0.50735304  0.25061782  0.80694639    -0.14000
S2449       S  0.54519511  0.24727772  0.70970433    -0.30900
H2450       H  0.53615877  0.21292073  0.75217345     0.10900
S2451       S  0.49253456  0.22915044  0.87036279    -0.28000
H2452       H  0.49930397  0.26116298  0.82233364     0.08100
H2453       H  0.52146077  0.33559331  0.80046748     0.26600
H2454       H  0.55321525  0.22995615  0.70608325     0.21400
H2455       H  0.50501339  0.21733381  0.89049956     0.26700
H2456       H  0.49300980  0.25075444  0.71576298     0.15500
C2457       C  0.60966024  0.08447993  0.92576926    -0.11800
C2458       C  0.59783672  0.09479798  0.95165513     0.14800
C2459       C  0.60107494  0.09604523  0.99687883     0.01700
C2460       C  0.61567481  0.08654088  0.01516357    -0.16100
C2461       C  0.62651399  0.07490937  0.98982868    -0.10900
C2462       C  0.62389459  0.07453717  0.94435668     0.08400
C2463       C  0.58213532  0.10382931  0.93066144     0.09400
S2464       S  0.58626133  0.10817702  0.03367860    -0.25200
H2465       H  0.61723413  0.08662595  0.05020901     0.19700
S2466       S  0.63765594  0.06074168  0.90887301    -0.30900
H2467       H  0.60743927  0.08373381  0.89098402     0.10000
C2468       C  0.58131040  0.12287522  0.92655898     0.03200
C2469       C  0.56589669  0.13090087  0.90820803    -0.13200
C2470       C  0.55125852  0.12034432  0.89305140    -0.08900
C2471       C  0.55224215  0.10119632  0.89657815     0.06700
C2472       C  0.56769660  0.09315348  0.91515059    -0.14000
S2473       S  0.60020249  0.13694285  0.94301320    -0.30900
H2474       H  0.56549874  0.14556098  0.90440072     0.10900
S2475       S  0.53413446  0.08639049  0.87948892    -0.28000
H2476       H  0.56834259  0.07846595  0.91834032     0.08100
H2477       H  0.65268762  0.05966727  0.93690852     0.26600
H2478       H  0.59168599  0.15385760  0.93623195     0.21400
H2479       H  0.52009992  0.09868650  0.88915948     0.26700
H2480       H  0.57021003  0.10575754  0.00976681     0.15500
C2481       C  0.59692847  0.08264721  0.70444166    -0.11800
C2482       C  0.59042634  0.09685485  0.67801125     0.14800
C2483       C  0.59343203  0.09602144  0.63270291     0.01700
C2484       C  0.60123401  0.08044728  0.61458184    -0.16100
C2485       C  0.60768093  0.06614657  0.64071433    -0.10900
C2486       C  0.60568198  0.06741845  0.68638203     0.08400
C2487       C  0.57877396  0.11122110  0.69759735     0.09400
S2488       S  0.58788238  0.11452149  0.59631865    -0.25200
H2489       H  0.60306762  0.07989374  0.57965880     0.19700
S2490       S  0.61327996  0.04984923  0.72314562    -0.30900
H2491       H  0.59468582  0.08317046  0.73925325     0.10000
C2492       C  0.56042083  0.11287356  0.68548212     0.03200
C2493       C  0.54963923  0.12627229  0.70475827    -0.13200
C2494       C  0.55619585  0.13753477  0.73839834    -0.08900
C2495       C  0.57483447  0.13620989  0.74954507     0.06700
C2496       C  0.58583868  0.12305722  0.72918711    -0.14000
S2497       S  0.55002103  0.09671275  0.64874213    -0.30900
H2498       H  0.53548684  0.12693032  0.69554809     0.10900
S2499       S  0.58536922  0.15049314  0.78976622    -0.28000
H2500       H  0.59999725  0.12191612  0.73832563     0.08100
H2501       H  0.61081604  0.03534541  0.69402351     0.26600
H2502       H  0.53305350  0.10537376  0.64520634     0.21400
H2503       H  0.57622482  0.16635668  0.77629430     0.26700
H2504       H  0.58965475  0.12843328  0.62738008     0.15500
C2505       C  0.52733398  0.24204799  0.25579330    -0.11800
C2506       C  0.51487042  0.25445668  0.27326931     0.14800
C2507       C  0.50158571  0.24824979  0.30289059     0.01700
C2508       C  0.50162108  0.22996469  0.31578500    -0.16100
C2509       C  0.51426208  0.21746509  0.29878083    -0.10900
C2510       C  0.52698600  0.22364224  0.26745601     0.08400
C2511       C  0.51580344  0.27359819  0.25857367     0.09400
S2512       S  0.48419853  0.26284679  0.32527968    -0.25200
H2513       H  0.49162119  0.22548281  0.33936436     0.19700
S2514       S  0.54255876  0.20877223  0.23941357    -0.30900
H2515       H  0.53723746  0.24671936  0.23216429     0.10000
C2516       C  0.52222916  0.28761103  0.28578706     0.03200
C2517       C  0.52283396  0.30554273  0.26997238    -0.13200
C2518       C  0.51714180  0.30964620  0.22753270    -0.08900
C2519       C  0.51129302  0.29544532  0.19998169     0.06700
C2520       C  0.51056757  0.27764153  0.21587540    -0.14000
S2521       S  0.52970202  0.28264582  0.34043653    -0.30900
H2522       H  0.52726378  0.31647560  0.29101247     0.10900
S2523       S  0.50507046  0.29907402  0.14393291    -0.28000
H2524       H  0.50595110  0.26679987  0.19474492     0.08100
H2525       H  0.52971052  0.19489144  0.23269049     0.26600
H2526       H  0.53454982  0.30056303  0.35160059     0.21400
H2527       H  0.51796668  0.31283083  0.13628164     0.26700
H2528       H  0.48350901  0.27529342  0.29057713     0.15500
C2529       C  0.58804574  0.12420178  0.42541650    -0.11800
C2530       C  0.58689160  0.10594717  0.43804473     0.14800
C2531       C  0.56996176  0.09685995  0.43525217     0.01700
C2532       C  0.55511312  0.10568366  0.41603260    -0.16100
C2533       C  0.55642839  0.12383822  0.40245664    -0.10900
C2534       C  0.57298012  0.13331372  0.40856730     0.08400
C2535       C  0.60366270  0.09656891  0.45245777     0.09400
S2536       S  0.56639831  0.07414665  0.45604337    -0.25200
H2537       H  0.54238749  0.09845894  0.41229598     0.19700
S2538       S  0.57616068  0.15667504  0.39242715    -0.30900
H2539       H  0.60088349  0.13132408  0.42801704     0.10000
C2540       C  0.61078566  0.08170397  0.42915968     0.03200
C2541       C  0.62457872  0.07123415  0.44771260    -0.13200
C2542       C  0.63125220  0.07513128  0.48949015    -0.08900
C2543       C  0.62653132  0.09196664  0.50886735     0.06700
C2544       C  0.61249069  0.10238287  0.49039406    -0.14000
S2545       S  0.60157045  0.07518016  0.37716060    -0.30900
H2546       H  0.62884014  0.05887820  0.43144557     0.10900
S2547       S  0.63748887  0.09992489  0.55782814    -0.28000
H2548       H  0.60772348  0.11454690  0.50662065     0.08100
H2549       H  0.56302825  0.16327868  0.42166091     0.26600
H2550       H  0.61513614  0.06247724  0.36633220     0.21400
H2551       H  0.62856456  0.11683050  0.56021742     0.26700
H2552       H  0.57969112  0.07505359  0.48873149     0.15500
C2553       C  0.50562643  0.17507122  0.54070624    -0.11800
C2554       C  0.48886412  0.16805887  0.55437835     0.14800
C2555       C  0.47552633  0.16405077  0.52306008     0.01700
C2556       C  0.47961898  0.16611356  0.47888556    -0.16100
C2557       C  0.49667052  0.17256765  0.46458344    -0.10900
C2558       C  0.50960807  0.17761504  0.49652756     0.08400
C2559       C  0.48593128  0.16502448  0.60153483     0.09400
S2560       S  0.45316041  0.15591894  0.53714996    -0.25200
H2561       H  0.46931917  0.16235314  0.45546490     0.19700
S2562       S  0.53159073  0.18689830  0.48376419    -0.30900
H2563       H  0.51579332  0.17846853  0.56480544     0.10000
C2564       C  0.48632241  0.14746907  0.62005798     0.03200
C2565       C  0.48524318  0.14551869  0.66544777    -0.13200
C2566       C  0.48375645  0.16076704  0.69304478    -0.08900
C2567       C  0.48216657  0.17830435  0.67360056     0.06700
C2568       C  0.48361402  0.18017234  0.62845478    -0.14000
S2569       S  0.48932225  0.12762590  0.58612073    -0.30900
H2570       H  0.48637501  0.13204401  0.67949661     0.10900
S2571       S  0.47872299  0.19905182  0.70377805    -0.28000
H2572       H  0.48303508  0.19364917  0.61404453     0.08100
H2573       H  0.52438300  0.20099353  0.45795028     0.26600
H2574       H  0.48840352  0.11457981  0.61959741     0.21400
H2575       H  0.46446635  0.19178006  0.72888701     0.26700
H2576       H  0.45220441  0.16421925  0.57821919     0.15500
C2577       C  0.49162201  0.14655601  0.11740510    -0.11800
C2578       C  0.49644372  0.16385505  0.10172621     0.14800
C2579       C  0.49883770  0.17824279  0.13144100     0.01700
C2580       C  0.49666809  0.17499230  0.17595026    -0.16100
C2581       C  0.49235465  0.15756458  0.19216679    -0.10900
C2582       C  0.48934100  0.14330076  0.16208833     0.08400
C2583       C  0.49813680  0.16672808  0.05418540     0.09400
S2584       S  0.50471485  0.20108099  0.11482936    -0.25200
H2585       H  0.49905034  0.18615366  0.19821670     0.19700
S2586       S  0.48185711  0.12093243  0.17822221    -0.30900
H2587       H  0.48935989  0.13557409  0.09455381     0.10000
C2588       C  0.51451752  0.16321719  0.03202214     0.03200
C2589       C  0.51564794  0.16653047  0.98716546    -0.13200
C2590       C  0.50059252  0.17291287  0.96367185    -0.08900
C2591       C  0.48424610  0.17664537  0.98618421     0.06700
C2592       C  0.48320286  0.17349169  0.03106475    -0.14000
S2593       S  0.53389262  0.15424687  0.06072431    -0.30900
H2594       H  0.52808839  0.16337326  0.96995240     0.10900
S2595       S  0.46438562  0.18574409  0.95976386    -0.28000
H2596       H  0.47066471  0.17638815  0.04819249     0.08100
H2597       H  0.47019659  0.12727330  0.21120065     0.26600
H2598       H  0.54589479  0.15393821  0.02510370     0.21400
H2599       H  0.47403577  0.19604155  0.92881644     0.26700
H2600       H  0.51477148  0.19625622  0.07777877     0.15500
C2601       C  0.57328370  0.12762709  0.18284893    -0.11800
C2602       C  0.58336049  0.11465830  0.20623477     0.14800
C2603       C  0.58510236  0.11678967  0.25176197     0.01700
C2604       C  0.57545705  0.13058446  0.27315139    -0.16100
C2605       C  0.56366124  0.14212134  0.25029192    -0.10900
C2606       C  0.56345372  0.14131947  0.20448330     0.08400
C2607       C  0.59192667  0.09912562  0.18260833     0.09400
S2608       S  0.59825132  0.10149428  0.28490949    -0.25200
H2609       H  0.57566022  0.13096943  0.30837850     0.19700
S2610       S  0.54995338  0.15725849  0.17375278    -0.30900
H2611       H  0.57248885  0.12652681  0.14777985     0.10000
C2612       C  0.58153999  0.08560046  0.16141012     0.03200
C2613       C  0.59034298  0.07097851  0.14038205    -0.13200
C2614       C  0.60935872  0.06936703  0.14070291    -0.08900
C2615       C  0.61962713  0.08317559  0.16173233     0.06700
C2616       C  0.61084597  0.09769874  0.18225695    -0.14000
S2617       S  0.55704678  0.08648251  0.16279725    -0.30900
H2618       H  0.58239353  0.06059682  0.12431911     0.10900
S2619       S  0.64407709  0.08378833  0.16208673    -0.28000
H2620       H  0.61888737  0.10813844  0.19795109     0.08100
H2621       H  0.55919447  0.15445269  0.13429076     0.26600
H2622       H  0.55401540  0.07146068  0.13545001     0.21400
H2623       H  0.64556693  0.08122977  0.11699383     0.26700
H2624       H  0.59377743  0.08564250  0.26169535     0.15500
C2625       C  0.47107913  0.78164717  0.74449850    -0.11800
C2626       C  0.48402881  0.77672730  0.77590777     0.14800
C2627       C  0.49739734  0.78956416  0.78797906     0.01700
C2628       C  0.49819400  0.80642131  0.76678082    -0.16100
C2629       C  0.48553387  0.81115821  0.73468842    -0.10900
C2630       C  0.47165358  0.79869673  0.72391356     0.08400
C2631       C  0.48487902  0.75745553  0.79083126     0.09400
S2632       S  0.51380501  0.78527528  0.83025868    -0.25200
H2633       H  0.50866322  0.81604973  0.77582155     0.19700
S2634       S  0.45501988  0.80325298  0.68234160    -0.30900
H2635       H  0.46095129  0.77182367  0.73450587     0.10000
C2636       C  0.47045456  0.74888684  0.81310901     0.03200
C2637       C  0.47181202  0.73029141  0.82397943    -0.13200
C2638       C  0.48750931  0.72015909  0.81404269    -0.08900
C2639       C  0.50203457  0.72903812  0.79255234     0.06700
C2640       C  0.50048588  0.74736414  0.78095454    -0.14000
S2641       S  0.45068167  0.76176794  0.82926347    -0.30900
H2642       H  0.46074741  0.72369619  0.84101299     0.10900
S2643       S  0.52260804  0.71761322  0.77693038    -0.28000
H2644       H  0.51152286  0.75380298  0.76339025     0.08100
H2645       H  0.46679359  0.81301505  0.65483755     0.26600
H2646       H  0.44229393  0.74781289  0.85338328     0.21400
H2647       H  0.51312461  0.70459825  0.75276773     0.26700
H2648       H  0.50285488  0.77320108  0.85425764     0.15500
C2649       C  0.55221116  0.93010111  0.60431210    -0.11800
C2650       C  0.56635638  0.93442587  0.63299388     0.14800
C2651       C  0.56747915  0.92526240  0.67334750     0.01700
C2652       C  0.55419725  0.91243879  0.68454567    -0.16100
C2653       C  0.53982935  0.90842286  0.65623606    -0.10900
C2654       C  0.53911020  0.91707140  0.61520301     0.08400
C2655       C  0.57933074  0.94893048  0.62032415     0.09400
S2656       S  0.58531076  0.92949328  0.71216878    -0.25200
H2657       H  0.55483510  0.90585659  0.71608249     0.19700
S2658       S  0.52205004  0.91189266  0.57505741    -0.30900
H2659       H  0.55137205  0.93697571  0.57316114     0.10000
C2660       C  0.59153707  0.94652784  0.58547737     0.03200
C2661       C  0.60329290  0.96074738  0.57392244    -0.13200
C2662       C  0.60316568  0.97737785  0.59647312    -0.08900
C2663       C  0.59121913  0.97955578  0.63213878     0.06700
C2664       C  0.57927620  0.96544761  0.64321021    -0.14000
S2665       S  0.59248529  0.92518693  0.55638495    -0.30900
H2666       H  0.61255402  0.95896339  0.54689262     0.10900
S2667       S  0.59118604  0.99953353  0.66611737    -0.28000
H2668       H  0.57002758  0.96723733  0.67031104     0.08100
H2669       H  0.51934960  0.89372677  0.58794672     0.26600
H2670       H  0.60545578  0.93054382  0.52529067     0.21400
H2671       H  0.61015434  0.00179709  0.66542616     0.26700
H2672       H  0.59874589  0.93401333  0.68149742     0.15500
C2673       C  0.49750656  0.77610607  0.21035692    -0.11800
C2674       C  0.48616997  0.77120690  0.24518160     0.14800
C2675       C  0.47506193  0.78472304  0.26425571     0.01700
C2676       C  0.47579487  0.80271251  0.24889376    -0.16100
C2677       C  0.48721369  0.80774581  0.21421831    -0.10900
C2678       C  0.49796166  0.79402789  0.19429560     0.08400
C2679       C  0.48660556  0.75212995  0.26198829     0.09400
S2680       S  0.45971666  0.77991954  0.30855541    -0.25200
H2681       H  0.46746233  0.81294298  0.26462155     0.19700
S2682       S  0.51206110  0.79822648  0.14738499    -0.30900
H2683       H  0.50599531  0.76581606  0.19532961     0.10000
C2684       C  0.47923064  0.73745503  0.23824650     0.03200
C2685       C  0.47918975  0.71984145  0.25647312    -0.13200
C2686       C  0.48654821  0.71646696  0.29787032    -0.08900
C2687       C  0.49389625  0.73125566  0.32153289     0.06700
C2688       C  0.49399299  0.74876967  0.30325089    -0.14000
S2689       S  0.46952429  0.74120558  0.18509706    -0.30900
H2690       H  0.47364568  0.70856977  0.23814728     0.10900
S2691       S  0.50255562  0.72890439  0.37604636    -0.28000
H2692       H  0.49954233  0.76000122  0.32177445     0.08100
H2693       H  0.49941678  0.80967626  0.12664734     0.26600
H2694       H  0.46451331  0.72303377  0.17711633     0.21400
H2695       H  0.48932827  0.71627685  0.38949732     0.26700
H2696       H  0.45574411  0.76194491  0.29612814     0.15500
C2697       C  0.58770687  0.94778367  0.09652129    -0.11800
C2698       C  0.57458288  0.95258020  0.12744065     0.14800
C2699       C  0.57389601  0.97067363  0.14284001     0.01700
C2700       C  0.58626075  0.98353330  0.12691378    -0.16100
C2701       C  0.59954909  0.97880219  0.09608392    -0.10900
C2702       C  0.59992522  0.96068552  0.08008400     0.08400
C2703       C  0.56122544  0.93866089  0.14131611     0.09400
S2704       S  0.55754615  0.97825485  0.18264460    -0.25200
H2705       H  0.58569749  0.99730783  0.13944859     0.19700
S2706       S  0.61474269  0.95333013  0.03682042    -0.30900
H2707       H  0.58801362  0.93399488  0.08398758     0.10000
C2708       C  0.54322638  0.93905791  0.12617864     0.03200
C2709       C  0.53076521  0.92619790  0.14172344    -0.13200
C2710       C  0.53601106  0.91234998  0.17080372    -0.08900
C2711       C  0.55421846  0.91187553  0.18561241     0.06700
C2712       C  0.56659072  0.92504514  0.17060122    -0.14000
S2713       S  0.53624370  0.95566388  0.08612355    -0.30900
H2714       H  0.51688369  0.92670888  0.13033502     0.10900
S2715       S  0.56167974  0.89543617  0.22561405    -0.28000
H2716       H  0.58045305  0.92500581  0.18223626     0.08100
H2717       H  0.61222202  0.96914155  0.01159703     0.26600
H2718       H  0.51812374  0.94984337  0.08246952     0.21400
H2719       H  0.58014054  0.90030832  0.22553715     0.26700
H2720       H  0.55552459  0.96145084  0.20402273     0.15500
C2721       C  0.51991476  0.85526746  0.89285315    -0.11800
C2722       C  0.50868252  0.86698898  0.91677506     0.14800
C2723       C  0.50073928  0.88213334  0.89560850     0.01700
C2724       C  0.50356477  0.88474329  0.85104308    -0.16100
C2725       C  0.51391885  0.87241282  0.82646724    -0.10900
C2726       C  0.52275967  0.85788250  0.84822910     0.08400
C2727       C  0.50649840  0.86386284  0.96423119     0.09400
S2728       S  0.48621564  0.89821907  0.92310317    -0.25200
H2729       H  0.49663528  0.89590950  0.83499874     0.19700
S2730       S  0.53813451  0.84245104  0.82131728    -0.30900
H2731       H  0.52664030  0.84405616  0.90921541     0.10000
C2732       C  0.49724235  0.84857526  0.98124754     0.03200
C2733       C  0.49522406  0.84665161  0.02664339    -0.13200
C2734       C  0.50213964  0.85982484  0.05531872    -0.08900
C2735       C  0.51091517  0.87534193  0.03755263     0.06700
C2736       C  0.51343590  0.87688561  0.99275264    -0.14000
S2737       S  0.48745854  0.83189577  0.94513629    -0.30900
H2738       H  0.48825133  0.83490341  0.03982813     0.10900
S2739       S  0.51790070  0.89454924  0.06953433    -0.28000
H2740       H  0.52029871  0.88877187  0.97977633     0.08100
H2741       H  0.54480130  0.85550225  0.79177981     0.26600
H2742       H  0.48031331  0.82045810  0.97764666     0.21400
H2743       H  0.50205716  0.89471888  0.09515272     0.26700
H2744       H  0.47867849  0.88562193  0.95248266     0.15500
C2745       C  0.49439379  0.84354456  0.48346446    -0.11800
C2746       C  0.50978174  0.85230482  0.46650301     0.14800
C2747       C  0.52323137  0.85859859  0.49526515     0.01700
C2748       C  0.52055363  0.85705770  0.54007695    -0.16100
C2749       C  0.50471040  0.84919748  0.55772810    -0.10900
C2750       C  0.49174161  0.84170923  0.52863392     0.08400
C2751       C  0.51073620  0.85625135  0.41918097     0.09400
S2752       S  0.54391297  0.86928880  0.47682427    -0.25200
H2753       H  0.53087989  0.86259258  0.56130116     0.19700
S2754       S  0.47162108  0.83007044  0.54776793    -0.30900
H2755       H  0.48416578  0.83866600  0.46109880     0.10000
C2756       C  0.51321681  0.84243114  0.38808880     0.03200
C2757       C  0.51391188  0.84701111  0.34374016    -0.13200
C2758       C  0.51241602  0.86523251  0.32948927    -0.08900
C2759       C  0.51071500  0.87910237  0.36140086     0.06700
C2760       C  0.50952624  0.87440252  0.40541165    -0.14000
S2761       S  0.51572917  0.81898552  0.40489781    -0.30900
H2762       H  0.51525415  0.83621613  0.32004989     0.10900
S2763       S  0.51011737  0.90308468  0.34899737    -0.28000
H2764       H  0.50787363  0.88507149  0.42941111     0.08100
H2765       H  0.46522478  0.82435459  0.50694631     0.26600
H2766       H  0.51902948  0.81172691  0.36332720     0.21400
H2767       H  0.52543160  0.90229539  0.32161686     0.26700
H2768       H  0.54516894  0.85967824  0.43742693     0.15500
C2769       C  0.27175227  0.98274079  0.02032573    -0.11800
C2770       C  0.25820311  0.99243480  0.99802677     0.14800
C2771       C  0.26331088  0.00350917  0.96238152     0.01700
C2772       C  0.28167069  0.00516828  0.95102310    -0.16100
C2773       C  0.29529786  0.99565275  0.97356246    -0.10900
C2774       C  0.29013185  0.98424732  0.00869466     0.08400
C2775       C  0.23928880  0.99241558  0.01552347     0.09400
S2776       S  0.24702101  0.01575171  0.92974244    -0.25200
H2777       H  0.28530882  0.01376982  0.92368841     0.19700
S2778       S  0.30633942  0.97221591  0.04190526    -0.30900
H2779       H  0.26805442  0.97449469  0.04822929     0.10000
C2780       C  0.22866837  0.97643349  0.01828886     0.03200
C2781       C  0.21097328  0.97735893  0.03561019    -0.13200
C2782       C  0.20354610  0.99397134  0.04978577    -0.08900
C2783       C  0.21436206  0.00985351  0.04754925     0.06700
C2784       C  0.23196151  0.00889550  0.03052217    -0.14000
S2785       S  0.23723183  0.95505972  0.99773751    -0.30900
H2786       H  0.20265138  0.96521988  0.03681498     0.10900
S2787       S  0.20676786  0.03169489  0.06716413    -0.28000
H2788       H  0.24014100  0.02114893  0.02930117     0.08100
H2789       H  0.31889271  0.98664441  0.04332994     0.26600
H2790       H  0.22196596  0.94446941  0.00854295     0.21400
H2791       H  0.19701314  0.02464271  0.10276582     0.26700
H2792       H  0.23269965  0.00334058  0.93576841     0.15500
C2793       C  0.40613486  0.08257311  0.91652760    -0.11800
C2794       C  0.41993044  0.07834168  0.88684934     0.14800
C2795       C  0.42125501  0.06043251  0.87056766     0.01700
C2796       C  0.40904021  0.04710757  0.88504210    -0.16100
C2797       C  0.39529571  0.05117648  0.91536280    -0.10900
C2798       C  0.39399071  0.06925517  0.93133312     0.08400
C2799       C  0.43364603  0.09246470  0.87654675     0.09400
S2800       S  0.43840360  0.05365432  0.83189366    -0.25200
H2801       H  0.41026053  0.03341054  0.87224584     0.19700
S2802       S  0.37810293  0.07606845  0.97283969    -0.30900
H2803       H  0.40527727  0.09625818  0.92958999     0.10000
C2804       C  0.43039144  0.10613743  0.84533362     0.03200
C2805       C  0.44403303  0.11895570  0.83606493    -0.13200
C2806       C  0.46079282  0.11851351  0.85790485    -0.08900
C2807       C  0.46346491  0.10545754  0.89117174     0.06700
C2808       C  0.45007135  0.09238552  0.89942783    -0.14000
S2809       S  0.40913108  0.10679352  0.81626296    -0.30900
H2810       H  0.44185968  0.12898778  0.81076325     0.10900
S2811       S  0.48322084  0.10529478  0.92568241    -0.28000
H2812       H  0.45232723  0.08222619  0.92444960     0.08100
H2813       H  0.38157807  0.06089555  0.99959454     0.26600
H2814       H  0.41264061  0.12289253  0.79286752     0.21400
H2815       H  0.48550486  0.12432699  0.92588931     0.26700
H2816       H  0.44036132  0.07073425  0.81176878     0.15500
C2817       C  0.39293754  0.93215390  0.83220424    -0.11800
C2818       C  0.41188038  0.93130815  0.83500667     0.14800
C2819       C  0.42124165  0.94580211  0.85550999     0.01700
C2820       C  0.41139330  0.95987128  0.87553535    -0.16100
C2821       C  0.39237385  0.96060535  0.87310203    -0.10900
C2822       C  0.38313032  0.94653276  0.85041164     0.08400
C2823       C  0.42128605  0.91557356  0.81424804     0.09400
S2824       S  0.44565548  0.94776588  0.85531170    -0.25200
H2825       H  0.41868582  0.97063966  0.89202994     0.19700
S2826       S  0.35878699  0.94540197  0.84439735    -0.30900
H2827       H  0.38563410  0.92130800  0.81599270     0.10000
C2828       C  0.43322730  0.90401783  0.83724794     0.03200
C2829       C  0.44377902  0.89132626  0.81416994    -0.13200
C2830       C  0.44164990  0.88896572  0.76903892    -0.08900
C2831       C  0.42744811  0.89842053  0.74787047     0.06700
C2832       C  0.41793583  0.91199285  0.77017514    -0.14000
S2833       S  0.43505956  0.90533685  0.89571604    -0.30900
H2834       H  0.45432120  0.88382072  0.83094904     0.10900
S2835       S  0.42169488  0.89497112  0.69168615    -0.28000
H2836       H  0.40810095  0.92014774  0.75263805     0.08100
H2837       H  0.35499017  0.94880279  0.88838305     0.26600
H2838       H  0.44567756  0.88955982  0.90096616     0.21400
H2839       H  0.42159090  0.87586484  0.69518790     0.26700
H2840       H  0.44837696  0.93879757  0.81548035     0.15500
C2841       C  0.43260260  0.93401872  0.10155935    -0.11800
C2842       C  0.41616417  0.92457739  0.09562374     0.14800
C2843       C  0.41526128  0.90594090  0.10646861     0.01700
C2844       C  0.43076146  0.89706683  0.12159002    -0.16100
C2845       C  0.44708956  0.90649006  0.12825038    -0.10900
C2846       C  0.44800863  0.92521824  0.11829575     0.08400
C2847       C  0.40053615  0.93409681  0.07550084     0.09400
S2848       S  0.39457667  0.89289075  0.10320605    -0.25200
H2849       H  0.42983859  0.88276151  0.13015627     0.19700
S2850       S  0.46844623  0.93839137  0.12512152    -0.30900
H2851       H  0.43342684  0.94830850  0.09289134     0.10000
C2852       C  0.39163035  0.94890890  0.09555672     0.03200
C2853       C  0.37828793  0.95842470  0.07255151    -0.13200
C2854       C  0.37370861  0.95384830  0.02945989    -0.08900
C2855       C  0.38135586  0.93787104  0.01134248     0.06700
C2856       C  0.39480789  0.92841657  0.03420662    -0.14000
S2857       S  0.39705500  0.95716590  0.14925858    -0.30900
H2858       H  0.37238667  0.97043806  0.08740409     0.10900
S2859       S  0.37581786  0.92955700  0.95806110    -0.28000
H2860       H  0.40132813  0.91681333  0.01900652     0.08100
H2861       H  0.48059330  0.92385449  0.11882660     0.26600
H2862       H  0.40785206  0.94260380  0.16297547     0.21400
H2863       H  0.35699836  0.93156481  0.96422800     0.26700
H2864       H  0.38287947  0.90743942  0.11322592     0.15500
C2865       C  0.26719855  0.01488372  0.49112775    -0.11800
C2866       C  0.26015168  0.99824605  0.50561814     0.14800
C2867       C  0.27146549  0.98272566  0.50526367     0.01700
C2868       C  0.28940360  0.98416003  0.49000262    -0.16100
C2869       C  0.29667896  0.00088574  0.47556725    -0.10900
C2870       C  0.28519504  0.01649575  0.47680409     0.08400
C2871       C  0.24088589  0.99765313  0.52026329     0.09400
S2872       S  0.26384396  0.96070657  0.52385144    -0.25200
H2873       H  0.29775805  0.97201806  0.48966193     0.19700
S2874       S  0.29231011  0.03904065  0.46111826    -0.30900
H2875       H  0.25857313  0.02685122  0.49143007     0.10000
C2876       C  0.23547094  0.00535211  0.56022398     0.03200
C2877       C  0.21702490  0.00528692  0.57203295    -0.13200
C2878       C  0.20376694  0.99768403  0.54471302    -0.08900
C2879       C  0.20922780  0.99031042  0.50423893     0.06700
C2880       C  0.22768139  0.99014998  0.49279353    -0.14000
S2881       S  0.25215480  0.01484491  0.59669486    -0.30900
H2882       H  0.21292199  0.01092542  0.60303869     0.10900
S2883       S  0.19326432  0.98186667  0.46471786    -0.28000
H2884       H  0.23174530  0.98458359  0.46165136     0.08100
H2885       H  0.30748402  0.03891117  0.48871397     0.26600
H2886       H  0.23985842  0.02105348  0.62841649     0.21400
H2887       H  0.17970376  0.99481954  0.47375759     0.26700
H2888       H  0.25127640  0.96716860  0.55460179     0.15500
C2889       C  0.45490483  0.09222572  0.40787698    -0.11800
C2890       C  0.44027541  0.08871435  0.37993431     0.14800
C2891       C  0.43890547  0.09847667  0.34044530     0.01700
C2892       C  0.45236923  0.11110149  0.32933062    -0.16100
C2893       C  0.46715504  0.11442656  0.35690049    -0.10900
C2894       C  0.46824857  0.10505880  0.39701388     0.08400
C2895       C  0.42667235  0.07486005  0.39296504     0.09400
S2896       S  0.42049280  0.09533111  0.30257156    -0.25200
H2897       H  0.45139547  0.11827939  0.29857622     0.19700
S2898       S  0.48591205  0.10931719  0.43626841    -0.30900
H2899       H  0.45586486  0.08496818  0.43852218     0.10000
C2900       C  0.42607200  0.05755148  0.37331758     0.03200
C2901       C  0.41288260  0.04492653  0.38668920    -0.13200
C2902       C  0.40027088  0.04915507  0.41956873    -0.08900
C2903       C  0.40117780  0.06649068  0.43966684     0.06700
C2904       C  0.41422560  0.07912506  0.42590858    -0.14000
S2905       S  0.44231108  0.05142285  0.33176748    -0.30900
H2906       H  0.41234236  0.03168446  0.37131568     0.10900
S2907       S  0.38679753  0.07309508  0.48441249    -0.28000
H2908       H  0.41483903  0.09236334  0.44138033     0.08100
H2909       H  0.48762048  0.12800651  0.42708900     0.26600
H2910       H  0.43586161  0.03365477  0.32458180     0.21400
H2911       H  0.38843460  0.05635662  0.50638986     0.26700
H2912       H  0.40733098  0.09019032  0.33332303     0.15500
C2913       C  0.43004402  0.90210216  0.33947778    -0.11800
C2914       C  0.41780161  0.91224362  0.31421715     0.14800
C2915       C  0.41544656  0.90745728  0.26999926     0.01700
C2916       C  0.42596996  0.89349058  0.25175375    -0.16100
C2917       C  0.43947557  0.88456868  0.27598059    -0.10900
C2918       C  0.44074368  0.88830145  0.32104874     0.08400
C2919       C  0.40856765  0.92827195  0.33428918     0.09400
S2920       S  0.40043703  0.91959177  0.23395163    -0.25200
H2921       H  0.42490590  0.89099172  0.21713408     0.19700
S2922       S  0.45638153  0.87648136  0.35630934    -0.30900
H2923       H  0.43167081  0.90533651  0.37361931     0.10000
C2924       C  0.38957494  0.92905868  0.33959837     0.03200
C2925       C  0.38158415  0.94480620  0.35707194    -0.13200
C2926       C  0.39212220  0.95969499  0.37094540    -0.08900
C2927       C  0.41117366  0.95874264  0.36634174     0.06700
C2928       C  0.41914834  0.94311329  0.34816086    -0.14000
S2929       S  0.37556852  0.90960162  0.32683504    -0.30900
H2930       H  0.36702659  0.94518683  0.36187220     0.10900
S2931       S  0.42596270  0.97713457  0.38193639    -0.28000
H2932       H  0.43376222  0.94258978  0.34430219     0.08100
H2933       H  0.45761216  0.86070941  0.33054047     0.26600
H2934       H  0.35872875  0.91789540  0.33540790     0.21400
H2935       H  0.41357665  0.99112961  0.37209778     0.26700
H2936       H  0.40299747  0.93681503  0.25284863     0.15500
C2937       C  0.33889314  0.03178555  0.64490630    -0.11800
C2938       C  0.35102433  0.02205021  0.67113455     0.14800
C2939       C  0.36692582  0.01469758  0.65241710     0.01700
C2940       C  0.36986325  0.01651295  0.60765445    -0.16100
C2941       C  0.35727318  0.02544539  0.58068116    -0.10900
C2942       C  0.34196385  0.03384916  0.60022577     0.08400
C2943       C  0.34696162  0.02022821  0.71804431     0.09400
S2944       S  0.38410481  0.00292696  0.68349724    -0.25200
H2945       H  0.38175201  0.01010865  0.59356648     0.19700
S2946       S  0.32609681  0.04781115  0.57064047    -0.30900
H2947       H  0.32698703  0.03796659  0.65951211     0.10000
C2948       C  0.35279669  0.03337329  0.74795028     0.03200
C2949       C  0.34957185  0.03064606  0.79235644    -0.13200
C2950       C  0.34082473  0.01481777  0.80806275    -0.08900
C2951       C  0.33447249  0.00185675  0.77743845     0.06700
C2952       C  0.33749326  0.00485876  0.73281465    -0.14000
S2953       S  0.36487494  0.05338807  0.72959454    -0.30900
H2954       H  0.35450584  0.04073308  0.81500909     0.10900
S2955       S  0.32287001  0.98127506  0.79394712    -0.28000
H2956       H  0.33299049  0.99494658  0.70918855     0.08100
H2957       H  0.33930080  0.05545861  0.54299340     0.26600
H2958       H  0.36799160  0.06098000  0.77087540     0.21400
H2959       H  0.31944235  0.97441425  0.75209232     0.26700
H2960       H  0.37299260  0.99678991  0.71754702     0.15500
C2961       C  0.33283195  0.01101573  0.23454594    -0.11800
C2962       C  0.34623061  0.02277352  0.21820551     0.14800
C2963       C  0.35696133  0.03281177  0.24748482     0.01700
C2964       C  0.35493259  0.03000258  0.29213772    -0.16100
C2965       C  0.34201138  0.01770429  0.30896497    -0.10900
C2966       C  0.33040257  0.00858951  0.27947711     0.08400
C2967       C  0.34936695  0.02365098  0.17065872     0.09400
S2968       S  0.37388497  0.04901501  0.22994461    -0.25200
H2969       H  0.36391645  0.03728502  0.31386661     0.19700
S2970       S  0.31207317  0.99404409  0.29673532    -0.30900
H2971       H  0.32430587  0.00356681  0.21208951     0.10000
C2972       C  0.36470114  0.01542448  0.15155593     0.03200
C2973       C  0.36728582  0.01663961  0.10645913    -0.13200
C2974       C  0.35480155  0.02585493  0.07973827    -0.08900
C2975       C  0.33970333  0.03456615  0.09941141     0.06700
C2976       C  0.33704830  0.03314296  0.14440866    -0.14000
S2977       S  0.38051303  0.00259343  0.18437482    -0.30900
H2978       H  0.37868208  0.00963879  0.09175260     0.10900
S2979       S  0.32356275  0.04804189  0.06933780    -0.28000
H2980       H  0.32542137  0.03973618  0.15924803     0.08100
H2981       H  0.30679416  0.00536439  0.33142048     0.26600
H2982       H  0.39345474  0.99964459  0.15145838     0.21400
H2983       H  0.33655067  0.05541593  0.04069162     0.26700
H2984       H  0.36503593  0.05423729  0.19143789     0.15500
C2985       C  0.42420450  0.90468263  0.56470783    -0.11800
C2986       C  0.42269317  0.92359619  0.56891112     0.14800
C2987       C  0.43627501  0.93314943  0.59199281     0.01700
C2988       C  0.45042793  0.92350926  0.61199816    -0.16100
C2989       C  0.45181933  0.90447967  0.60846755    -0.10900
C2990       C  0.43862625  0.89501718  0.58343736     0.08400
C2991       C  0.40620545  0.93269628  0.55120722     0.09400
S2992       S  0.43630649  0.95760805  0.59730321    -0.25200
H2993       H  0.46038976  0.93095689  0.63078129     0.19700
S2994       S  0.43868388  0.87046575  0.57791542    -0.30900
H2995       H  0.41360305  0.89738487  0.54774399     0.10000
C2996       C  0.40174933  0.93190670  0.50658281     0.03200
C2997       C  0.38645140  0.94132312  0.49128706    -0.13200
C2998       C  0.37590689  0.95219947  0.51915231    -0.08900
C2999       C  0.37968369  0.95195070  0.56419845     0.06700
C3000       C  0.39462069  0.94209517  0.57972581    -0.14000
S3001       S  0.41657204  0.92071159  0.46807075    -0.30900
H3002       H  0.38388469  0.94177307  0.45666048     0.10900
S3003       S  0.36645761  0.96468190  0.60309059    -0.28000
H3004       H  0.39760035  0.94224450  0.61422883     0.08100
H3005       H  0.42490066  0.86919790  0.54647827     0.26600
H3006       H  0.40494861  0.92204464  0.43198999     0.21400
H3007       H  0.35074239  0.96584692  0.57732245     0.26700
H3008       H  0.42775685  0.96115361  0.55732581     0.15500
loop_ 
_geom_bond_atom_site_label_1 
_geom_bond_atom_site_label_2 
_geom_bond_distance 
_geom_bond_site_symmetry_2 
_ccdc_geom_bond_type 
O1          Cr19   2.020       .  S
O1            C9   1.271       .  A
O2          Cr19   1.958   1_565  S
O2            C3   1.252       .  A
C3            O4   1.270       .  A
C3         C2998   1.479       .  S
O4          Cr20   2.034       .  S
O5          Cr20   1.997       .  S
O5            C6   1.263   1_565  A
C6            O7   1.263       .  A
C6         C2869   1.503       .  S
O7          Cr21   2.011       .  S
O8          Cr21   1.972       .  S
O8            C9   1.260       .  A
C9         C2941   1.488       .  S
O10         Cr19   1.973       .  S
O10          C18   1.259       .  A
O11         Cr19   2.033   1_565  S
O11          C12   1.271       .  A
C12          O13   1.260       .  A
C12        C2926   1.488       .  S
O13         Cr20   1.969       .  S
O14         Cr20   2.031       .  S
O14          C15   1.275   1_565  A
C15          O16   1.262       .  A
C15        C2965   1.490       .  S
O16         Cr21   1.958       .  S
O17         Cr21   2.021       .  S
O17          C18   1.268       .  A
C18        C2902   1.486       .  S
Cr19         O22   1.761       .  S
Cr20         O22   1.768   1_565  S
Cr21         O22   1.766       .  S
O23         Cr41   2.018   1_554  S
O23          C31   1.271       .  A
O24         Cr41   1.951   1_564  S
O24          C25   1.254       .  A
C25          O26   1.271   1_554  A
C25        C2854   1.487       .  S
O26         Cr42   2.041       .  S
O27         Cr42   1.983       .  S
O27          C28   1.260       .  A
C28          O29   1.268   1_565  A
C28        C2773   1.490       .  S
O29         Cr43   2.018       .  S
O30         Cr43   1.972   1_554  S
O30          C31   1.261       .  A
C31        C2974   1.486       .  S
O32         Cr41   1.976       .  S
O32          C40   1.261       .  A
O33         Cr41   2.038   1_565  S
O33          C34   1.271       .  A
C34          O35   1.253       .  A
C34        C2821   1.488       .  S
O35         Cr42   1.962       .  S
O36         Cr42   2.024       .  S
O36          C37   1.272   1_565  A
C37          O38   1.261       .  A
C37        C2950   1.496       .  S
O38         Cr43   1.960       .  S
O39         Cr43   2.020       .  S
O39          C40   1.269       .  A
C40        C2797   1.490       .  S
Cr41         O44   1.761       .  S
Cr42         O44   1.762   1_565  S
Cr43         O44   1.764       .  S
O45         Cr63   1.978       .  S
O45          C53   1.263       .  A
O46         Cr63   2.015       .  S
O46          C47   1.266       .  A
C47          O48   1.263       .  A
C47        C2677   1.495       .  S
O48         Cr64   1.990       .  S
O49         Cr64   2.039       .  S
O49          C50   1.272       .  A
C50          O51   1.254       .  A
C50        C2917   1.486       .  S
O51         Cr65   1.958       .  S
O52         Cr65   2.009       .  S
O52          C53   1.268       .  A
C53        C2758   1.495       .  S
O54         Cr63   2.021       .  S
O54          C62   1.267       .  A
O55         Cr63   1.969       .  S
O55          C56   1.262       .  A
C56          O57   1.274       .  A
C56        C2734   1.489       .  S
O57         Cr64   2.030       .  S
O58         Cr64   1.963       .  S
O58          C59   1.257       .  A
C59          O60   1.268       .  A
C59        C2845   1.472       .  S
O60         Cr65   2.021       .  S
O61         Cr65   1.971       .  S
O61          C62   1.259       .  A
C62        C2710   1.489       .  S
Cr63         O66   1.770       .  S
Cr64         O66   1.768       .  S
Cr65         O66   1.763       .  S
O67         Cr85   1.965       .  S
O67          C75   1.259       .  A
O68         Cr85   2.010       .  S
O68          C69   1.267       .  A
C69          O70   1.260       .  A
C69        C2629   1.476       .  S
O70         Cr86   1.978       .  S
O71         Cr86   2.034       .  S
O71          C72   1.270       .  A
C72          O73   1.255       .  A
C72        C2830   1.484       .  S
O73         Cr87   1.962       .  S
O74         Cr87   2.021       .  S
O74          C75   1.271       .  A
C75        C2725   1.484       .  S
O76         Cr85   2.018       .  S
O76          C84   1.267       .  A
O77         Cr85   1.970       .  S
O77          C78   1.263       .  A
C78          O79   1.270       .  A
C78        C2749   1.498       .  S
O79         Cr86   2.021       .  S
O80         Cr86   1.964       .  S
O80          C81   1.254       .  A
C81          O82   1.271       .  A
C81        C2989   1.490       .  S
O82         Cr87   2.031       .  S
O83         Cr87   1.974       .  S
O83          C84   1.258       .  A
C84        C2653   1.475       .  S
Cr85         O88   1.768       .  S
Cr86         O88   1.764       .  S
Cr87         O88   1.762       .  S
O89        Cr107   2.021       .  S
O89          C97   1.271       .  A
O90        Cr107   1.957       .  S
O90          C91   1.252       .  A
C91          O92   1.271       .  A
C91        C2605   1.478       .  S
O92        Cr108   2.043       .  S
O93        Cr108   1.975       .  S
O93          C94   1.259       .  A
C94          O95   1.265       .  A
C94        C2509   1.485       .  S
O95        Cr109   2.007       .  S
O96        Cr109   1.968       .  S
O96          C97   1.261       .  A
C97        C2581   1.490       .  S
O98        Cr107   1.980       .  S
O98         C106   1.260       .  A
O99        Cr107   2.033       .  S
O99         C100   1.270       .  A
C100        O101   1.253       .  A
C100       C2533   1.475       .  S
O101       Cr108   1.958       .  S
O102       Cr108   2.028       .  S
O102        C103   1.274       .  A
C103        O104   1.262       .  A
C103       C2557   1.496       .  S
O104       Cr109   1.963       .  S
O105       Cr109   2.014       .  S
O105        C106   1.266       .  A
C106       C2893   1.477       .  S
Cr107       O110   1.760       .  S
Cr108       O110   1.764       .  S
Cr109       O110   1.766       .  S
O111       Cr129   2.023       .  S
O111        C119   1.272       .  A
O112       Cr129   1.954       .  S
O112        C113   1.254       .  A
C113        O114   1.270       .  A
C113       C2494   1.498       .  S
O114       Cr130   2.044       .  S
O115       Cr130   1.986       .  S
O115        C116   1.262       .  A
C116        O117   1.266       .  A
C116       C2446   1.489       .  S
O117       Cr131   2.009       .  S
O118       Cr131   1.969       .  S
O118        C119   1.259       .  A
C119       C2566   1.496       .  S
O120       Cr129   1.975       .  S
O120        C128   1.260       .  A
O121       Cr129   2.039       .  S
O121        C122   1.271       .  A
C122        O123   1.254       .  A
C122       C2470   1.481       .  S
O123       Cr130   1.954       .  S
O124       Cr130   2.021       .  S
O124        C125   1.273       .  A
C125        O126   1.262       .  A
C125       C2590   1.480       .  S
O126       Cr131   1.969       .  S
O127       Cr131   2.020       .  S
O127        C128   1.268       .  A
C128       C2806   1.483       .  S
Cr129       O132   1.758       .  S
Cr130       O132   1.765       .  S
Cr131       O132   1.763       .  S
O133       Cr151   1.963       .  S
O133        C141   1.259   1_554  A
O134       Cr151   2.012       .  S
O134        C135   1.266       .  A
C135        O136   1.263       .  A
C135       C2365   1.493       .  S
O136       Cr152   1.995       .  S
O137       Cr152   2.032       .  S
O137        C138   1.268       .  A
C138        O139   1.252       .  A
C138       C2461   1.475   1_554  S
O139       Cr153   1.956       .  S
O140       Cr153   2.022   1_556  S
O140        C141   1.272       .  A
C141       C2398   1.488       .  S
O142       Cr151   2.012   1_565  S
O142        C150   1.266       .  A
O143       Cr151   1.960       .  S
O143        C144   1.260       .  A
C144        O145   1.274       .  A
C144       C2422   1.480       .  S
O145       Cr152   2.024       .  S
O146       Cr152   1.967       .  S
O146        C147   1.257       .  A
C147        O148   1.273       .  A
C147       C2614   1.494       .  S
O148       Cr153   2.044       .  S
O149       Cr153   1.978       .  S
O149        C150   1.261   1_545  A
C150       C2701   1.487       .  S
Cr151       O154   1.765       .  S
Cr152       O154   1.765       .  S
Cr153       O154   1.763       .  S
O155       Cr173   1.970       .  S
O155        C163   1.259       .  A
O156       Cr173   2.002       .  S
O156        C157   1.264       .  A
C157        O158   1.260       .  A
C157       C2350   1.482       .  S
O158       Cr174   1.982       .  S
O159       Cr174   2.024       .  S
O159        C160   1.267       .  A
C160        O161   1.256       .  A
C160       C2542   1.486       .  S
O161       Cr175   1.959       .  S
O162       Cr175   2.015       .  S
O162        C163   1.270       .  A
C163       C2413   1.493       .  S
O164       Cr173   2.007   1_565  S
O164        C172   1.265       .  A
O165       Cr173   1.962       .  S
O165        C166   1.260       .  A
C166        O167   1.272       .  A
C166       C2389   1.481       .  S
O167       Cr174   2.018       .  S
O168       Cr174   1.976       .  S
O168        C169   1.260       .  A
C169        O170   1.269       .  A
C169       C2485   1.481       .  S
O170       Cr175   2.018       .  S
O171       Cr175   1.982       .  S
O171        C172   1.261   1_545  A
C172       C2662   1.480       .  S
Cr173       O176   1.764       .  S
Cr174       O176   1.768       .  S
Cr175       O176   1.756       .  S
O177       Cr195   1.966   1_556  S
O177        C185   1.258   1_565  A
O178       Cr195   1.981       .  S
O178        C179   1.260       .  A
C179        O180   1.263       .  A
C179       C2317   1.464   1_554  S
O180       Cr196   1.996       .  S
O181       Cr196   2.010       .  S
O181        C182   1.264       .  A
C182        O183   1.257   1_565  A
C182       C2782   1.485       .  S
O183       Cr197   1.974       .  S
O184       Cr197   2.031       .  S
O184        C185   1.273   1_554  A
C185       C2269   1.481       .  S
O186       Cr195   2.008   1_545  S
O186        C194   1.261       .  A
O187       Cr195   1.990       .  S
O187        C188   1.265       .  A
C188        O189   1.264       .  A
C188       C2254   1.467       .  S
O189       Cr196   1.994       .  S
O190       Cr196   1.969       .  S
O190        C191   1.259   1_565  A
C191        O192   1.270       .  A
C191       C2293   1.494       .  S
O192       Cr197   2.020       .  S
O193       Cr197   1.985       .  S
O193        C194   1.256       .  A
C194       C2221   1.491       .  S
Cr195       O198   1.780       .  S
Cr196       O198   1.778       .  S
Cr197       O198   1.780   1_545  S
O199       Cr217   2.013   1_545  S
O199        C207   1.267       .  A
O200       Cr217   1.951       .  S
O200        C201   1.241       .  A
C201        O202   1.274       .  A
C201       C2197   1.496       .  S
O202       Cr218   2.078       .  S
O203       Cr218   1.986       .  S
O203        C204   1.262       .  A
C204        O205   1.267   1_565  A
C204       C2878   1.486       .  S
O205       Cr219   2.016       .  S
O206       Cr219   1.984       .  S
O206        C207   1.260       .  A
C207       C2302   1.496       .  S
O208       Cr217   1.961   1_545  S
O208        C216   1.259       .  A
O209       Cr217   2.050       .  S
O209        C210   1.273       .  A
C210        O211   1.254       .  A
C210       C2182   1.478       .  S
O211       Cr218   1.952       .  S
O212       Cr218   2.048       .  S
O212        C213   1.280   1_565  A
C213        O214   1.260       .  A
C213       C2278   1.482       .  S
O214       Cr219   1.960       .  S
O215       Cr219   2.024       .  S
O215        C216   1.273       .  A
C216       C2158   1.488       .  S
Cr217       O220   1.751       .  S
Cr218       O220   1.768       .  S
Cr219       O220   1.762   1_545  S
O221       Cr239   1.984       .  S
O221        C229   1.261       .  A
O222       Cr239   2.009       .  S
O222        C223   1.262   1_655  A
C223        O224   1.264       .  A
C223       C2053   1.496       .  S
O224       Cr240   1.995       .  S
O225       Cr240   2.042       .  S
O225        C226   1.271       .  A
C226        O227   1.249       .  A
C226       C2245   1.483       .  S
O227       Cr241   1.940       .  S
O228       Cr241   2.010   1_655  S
O228        C229   1.268       .  A
C229       C2125   1.491       .  S
O230       Cr239   2.015       .  S
O230        C238   1.267       .  A
O231       Cr239   1.962       .  S
O231        C232   1.262       .  A
C232        O233   1.276   1_655  A
C232       C2110   1.480       .  S
O233       Cr240   2.022       .  S
O234       Cr240   1.974       .  S
O234        C235   1.260       .  A
C235        O236   1.269       .  A
C235       C2206   1.502       .  S
O236       Cr241   2.027       .  S
O237       Cr241   1.975   1_655  S
O237        C238   1.261       .  A
C238       C2086   1.478       .  S
Cr239       O242   1.770   1_655  S
Cr240       O242   1.770       .  S
Cr241       O242   1.759       .  S
O243       Cr261   1.966       .  S
O243        C251   1.260       .  A
O244       Cr261   2.009   1_455  S
O244        C245   1.263       .  A
C245        O246   1.260       .  A
C245       C2014   1.481       .  S
O246       Cr262   1.985       .  S
O247       Cr262   2.045       .  S
O247        C248   1.273       .  A
C248        O249   1.254       .  A
C248       C2173   1.487       .  S
O249       Cr263   1.946       .  S
O250       Cr263   2.018       .  S
O250        C251   1.270   1_455  A
C251       C2101   1.478       .  S
O252       Cr261   2.014       .  S
O252        C260   1.267       .  A
O253       Cr261   1.954       .  S
O253        C254   1.259   1_655  A
C254        O255   1.276       .  A
C254       C2134   1.486       .  S
O255       Cr262   2.032       .  S
O256       Cr262   1.962       .  S
O256        C257   1.256       .  A
C257        O258   1.268       .  A
C257       C2326   1.482       .  S
O258       Cr263   2.027       .  S
O259       Cr263   1.985       .  S
O259        C260   1.261   1_455  A
C260       C2038   1.487       .  S
Cr261       O264   1.767   1_655  S
Cr262       O264   1.771       .  S
Cr263       O264   1.766       .  S
O265       Cr283   1.964       .  S
O265        C273   1.259   1_655  A
O266       Cr283   1.966       .  S
O266        C267   1.253       .  A
C267        O268   1.264       .  A
C267       C1918   1.467       .  S
O268       Cr284   2.009       .  S
O269       Cr284   2.010       .  S
O269        C270   1.265       .  A
C270        O271   1.258   1_655  A
C270       C1885   1.485       .  S
O271       Cr285   1.971       .  S
O272       Cr285   2.032       .  S
O272        C273   1.273       .  A
C273       C1966   1.480       .  S
O274       Cr283   2.002   1_455  S
O274        C282   1.259       .  A
O275       Cr283   1.992       .  S
O275        C276   1.269       .  A
C276        O277   1.269       .  A
C276       C1990   1.473       .  S
O277       Cr284   2.008       .  S
O278       Cr284   1.975       .  S
O278        C279   1.262       .  A
C279        O280   1.267   1_655  A
C279       C1933   1.482   1_655  S
O280       Cr285   2.002       .  S
O281       Cr285   1.989       .  S
O281        C282   1.254       .  A
C282       C2230   1.500       .  S
Cr283       O286   1.777       .  S
Cr284       O286   1.780       .  S
Cr285       O286   1.780   1_455  S
O287       Cr305   2.016   1_455  S
O287        C295   1.269       .  A
O288       Cr305   1.952       .  S
O288        C289   1.251       .  A
C289        O290   1.274       .  A
C289       C1846   1.481       .  S
O290       Cr306   2.046       .  S
O291       Cr306   1.983       .  S
O291        C292   1.260       .  A
C292        O293   1.267   1_655  A
C292       C1813   1.484       .  S
O293       Cr307   2.016       .  S
O294       Cr307   1.972       .  S
O294        C295   1.259       .  A
C295       C1942   1.487       .  S
O296       Cr305   1.967   1_455  S
O296        C304   1.259       .  A
O297       Cr305   2.032       .  S
O297        C298   1.270       .  A
C298        O299   1.257       .  A
C298       C1861   1.483       .  S
O299       Cr306   1.963       .  S
O300       Cr306   2.038       .  S
O300        C301   1.276   1_655  A
C301        O302   1.259       .  A
C301       C1957   1.482       .  S
O302       Cr307   1.961       .  S
O303       Cr307   2.017       .  S
O303        C304   1.268       .  A
C304       C2149   1.483       .  S
Cr305       O308   1.762       .  S
Cr306       O308   1.770       .  S
Cr307       O308   1.768   1_455  S
O309       Cr327   1.978       .  S
O309        C317   1.261       .  A
O310       Cr327   2.003   1_545  S
O310        C311   1.264       .  A
C311        O312   1.260       .  A
C311       C2341   1.483       .  S
O312       Cr328   1.984       .  S
O313       Cr328   2.034       .  S
O313        C314   1.271       .  A
C314        O315   1.254       .  A
C314       C1870   1.483       .  S
O315       Cr329   1.960       .  S
O316       Cr329   2.019       .  S
O316        C317   1.270   1_545  A
C317       C1774   1.495       .  S
O318       Cr327   2.018       .  S
O318        C326   1.268       .  A
O319       Cr327   1.967       .  S
O319        C320   1.262   1_565  A
C320        O321   1.274       .  A
C320       C1798   1.486       .  S
O321       Cr328   2.031       .  S
O322       Cr328   1.962       .  S
O322        C323   1.258       .  A
C323        O324   1.270       .  A
C323       C1909   1.478       .  S
O324       Cr329   2.031       .  S
O325       Cr329   1.975       .  S
O325        C326   1.260   1_545  A
C326       C2077   1.485       .  S
Cr327       O330   1.769   1_565  S
Cr328       O330   1.769       .  S
Cr329       O330   1.767       .  S
O331       Cr349   1.978   1_554  S
O331        C339   1.258       .  A
O332       Cr349   2.025   1_545  S
O332        C333   1.270       .  A
C333        O334   1.261       .  A
C333       C2374   1.492       .  S
O334       Cr350   1.986       .  S
O335       Cr350   2.063       .  S
O335        C336   1.272   1_556  A
C336        O337   1.246       .  A
C336       C1981   1.498       .  S
O337       Cr351   1.947   1_554  S
O338       Cr351   2.016   1_564  S
O338        C339   1.269       .  A
C339       C1789   1.500       .  S
O340       Cr349   2.039       .  S
O340        C348   1.275       .  A
O341       Cr349   1.965       .  S
O341        C342   1.263   1_565  A
C342        O343   1.276       .  A
C342       C1765   1.499       .  S
O343       Cr350   2.038       .  S
O344       Cr350   1.959       .  S
O344        C345   1.256       .  A
C345        O346   1.274       .  A
C345       C1837   1.487       .  S
O346       Cr351   2.052       .  S
O347       Cr351   1.967       .  S
O347        C348   1.261   1_545  A
C348       C2029   1.488       .  S
Cr349       O352   1.762   1_565  S
Cr350       O352   1.765       .  S
Cr351       O352   1.757       .  S
O353       Cr371   2.008       .  S
O353        C361   1.267       .  A
O354       Cr371   1.963       .  S
O354        C355   1.256       .  A
C355        O356   1.267       .  A
C355       C1702   1.490       .  S
O356       Cr372   2.025       .  S
O357       Cr372   1.980       .  S
O357        C358   1.259       .  A
C358        O359   1.264       .  A
C358       C2518   1.471       .  S
O359       Cr373   2.003       .  S
O360       Cr373   1.981       .  S
O360        C361   1.263       .  A
C361       C1750   1.490       .  S
O362       Cr371   1.972       .  S
O362        C370   1.260       .  A
O363       Cr371   2.016       .  S
O363        C364   1.267       .  A
C364        O365   1.259       .  A
C364       C1678   1.485       .  S
O365       Cr372   1.965       .  S
O366       Cr372   2.022       .  S
O366        C367   1.271       .  A
C367        O368   1.264       .  A
C367       C1717   1.492       .  S
O368       Cr373   1.975       .  S
O369       Cr373   2.012       .  S
O369        C370   1.266       .  A
C370       C1654   1.488       .  S
Cr371       O374   1.760       .  S
Cr372       O374   1.764       .  S
Cr373       O374   1.766       .  S
O375       Cr393   2.012       .  S
O375        C383   1.268       .  A
O376       Cr393   1.960       .  S
O376        C377   1.253       .  A
C377        O378   1.268       .  A
C377       C1621   1.473       .  S
O378       Cr394   2.026       .  S
O379       Cr394   1.979       .  S
O379        C380   1.259       .  A
C380        O381   1.266       .  A
C380       C2437   1.481       .  S
O381       Cr395   2.013       .  S
O382       Cr395   1.977       .  S
O382        C383   1.258       .  A
C383       C1726   1.493       .  S
O384       Cr393   1.971       .  S
O384        C392   1.260       .  A
O385       Cr393   2.029       .  S
O385        C386   1.270       .  A
C386        O387   1.259       .  A
C386       C1597   1.480       .  S
O387       Cr394   1.964       .  S
O388       Cr394   2.023       .  S
O388        C389   1.273       .  A
C389        O390   1.262       .  A
C389       C1741   1.480       .  S
O390       Cr395   1.969       .  S
O391       Cr395   2.028       .  S
O391        C392   1.271       .  A
C392       C1573   1.489       .  S
Cr393       O396   1.764       .  S
Cr394       O396   1.766       .  S
Cr395       O396   1.768       .  S
O397       Cr415   1.973       .  S
O397        C405   1.261       .  A
O398       Cr415   2.020       .  S
O398        C399   1.267       .  A
C399        O400   1.259       .  A
C399       C1477   1.496       .  S
O400       Cr416   1.981       .  S
O401       Cr416   2.034       .  S
O401        C402   1.271       .  A
C402        O403   1.254       .  A
C402       C1606   1.481       .  S
O403       Cr417   1.959       .  S
O404       Cr417   2.010       .  S
O404        C405   1.266       .  A
C405       C1525   1.487       .  S
O406       Cr415   2.022       .  S
O406        C414   1.269       .  A
O407       Cr415   1.963       .  S
O407        C408   1.260       .  A
C408        O409   1.275       .  A
C408       C1549   1.490       .  S
O409       Cr416   2.034       .  S
O410       Cr416   1.965       .  S
O410        C411   1.258       .  A
C411        O412   1.268       .  A
C411       C1693   1.474       .  S
O412       Cr417   2.022       .  S
O413       Cr417   1.972       .  S
O413        C414   1.260       .  A
C414       C1501   1.492       .  S
Cr415       O418   1.770       .  S
Cr416       O418   1.771       .  S
Cr417       O418   1.766       .  S
O419       Cr437   1.989   1_554  S
O419        C427   1.260       .  A
O420       Cr437   2.016       .  S
O420        C421   1.268       .  A
C421        O422   1.260       .  A
C421       C1429   1.479       .  S
O422       Cr438   1.974       .  S
O423       Cr438   2.054       .  S
O423        C424   1.271   1_556  A
C424        O425   1.248       .  A
C424       C1669   1.487       .  S
O425       Cr439   1.950   1_554  S
O426       Cr439   2.007   1_554  S
O426        C427   1.266       .  A
C427       C1558   1.492       .  S
O428       Cr437   2.034       .  S
O428        C436   1.275       .  A
O429       Cr437   1.959       .  S
O429        C430   1.261       .  A
C430        O431   1.272       .  A
C430       C1534   1.486       .  S
O431       Cr438   2.023       .  S
O432       Cr438   1.954       .  S
O432        C433   1.253       .  A
C433        O434   1.271       .  A
C433       C1630   1.478       .  S
O434       Cr439   2.043       .  S
O435       Cr439   1.962       .  S
O435        C436   1.260       .  A
C436       C1453   1.481       .  S
Cr437       O440   1.761       .  S
Cr438       O440   1.763       .  S
Cr439       O440   1.755       .  S
O441       Cr459   2.030   1_556  S
O441        C449   1.273       .  A
O442       Cr459   1.957       .  S
O442        C443   1.254       .  A
C443        O444   1.270       .  A
C443       C1414   1.479   1_554  S
O444       Cr460   2.029       .  S
O445       Cr460   1.986       .  S
O445        C446   1.259       .  A
C446        O447   1.264       .  A
C446       C1309   1.482       .  S
O447       Cr461   2.010       .  S
O448       Cr461   1.975       .  S
O448        C449   1.263   1_554  A
C449       C1366   1.490       .  S
O450       Cr459   1.977       .  S
O450        C458   1.258       .  A
O451       Cr459   2.035       .  S
O451        C452   1.271       .  A
C452        O453   1.257       .  A
C452       C1342   1.483       .  S
O453       Cr460   1.966       .  S
O454       Cr460   2.030       .  S
O454        C455   1.276       .  A
C455        O456   1.261       .  A
C455       C1381   1.499       .  S
O456       Cr461   1.969       .  S
O457       Cr461   2.013       .  S
O457        C458   1.265       .  A
C458       C1645   1.475       .  S
Cr459       O462   1.762       .  S
Cr460       O462   1.764       .  S
Cr461       O462   1.768       .  S
O463       Cr481   1.968       .  S
O463        C471   1.259       .  A
O464       Cr481   1.979       .  S
O464        C465   1.262       .  A
C465        O466   1.268       .  A
C465       C1294   1.464       .  S
O466       Cr482   2.002       .  S
O467       Cr482   1.995       .  S
O467        C468   1.257       .  A
C468        O469   1.254       .  A
C468       C1237   1.477       .  S
O469       Cr483   1.984       .  S
O470       Cr483   2.022       .  S
O470        C471   1.272       .  A
C471       C1390   1.495       .  S
O472       Cr481   1.997       .  S
O472        C480   1.261       .  A
O473       Cr481   2.003       .  S
O473        C474   1.266       .  A
C474        O475   1.262       .  A
C474       C1261   1.490       .  S
O475       Cr482   1.985       .  S
O476       Cr482   1.962       .  S
O476        C477   1.262       .  A
C477        O478   1.274       .  A
C477       C1357   1.486       .  S
O478       Cr483   2.031       .  S
O479       Cr483   1.980       .  S
O479        C480   1.256       .  A
C480       C1582   1.490       .  S
Cr481       O484   1.772       .  S
Cr482       O484   1.774       .  S
Cr483       O484   1.778       .  S
O485       Cr503   1.969       .  S
O485        C493   1.261       .  A
O486       Cr503   2.016       .  S
O486        C487   1.266       .  A
C487        O488   1.262       .  A
C487       C2686   1.489       .  S
O488       Cr504   1.991       .  S
O489       Cr504   2.043       .  S
O489        C490   1.271       .  A
C490        O491   1.254       .  A
C490       C1333   1.493       .  S
O491       Cr505   1.957       .  S
O492       Cr505   2.015       .  S
O492        C493   1.270       .  A
C493       C1213   1.481       .  S
O494       Cr503   2.016       .  S
O494        C502   1.267       .  A
O495       Cr503   1.966       .  S
O495        C496   1.263       .  A
C496        O497   1.274       .  A
C496       C1189   1.492       .  S
O497       Cr504   2.029       .  S
O498       Cr504   1.960       .  S
O498        C499   1.256       .  A
C499        O500   1.270       .  A
C499       C1285   1.483       .  S
O500       Cr505   2.032       .  S
O501       Cr505   1.978       .  S
O501        C502   1.260       .  A
C502       C1510   1.485       .  S
Cr503       O506   1.766       .  S
Cr504       O506   1.763       .  S
Cr505       O506   1.762       .  S
O507       Cr525   1.975       .  S
O507        C515   1.260       .  A
O508       Cr525   2.013       .  S
O508        C509   1.266       .  A
C509        O510   1.261       .  A
C509       C2638   1.489       .  S
O510       Cr526   1.984       .  S
O511       Cr526   2.033       .  S
O511        C512   1.270       .  A
C512        O513   1.252       .  A
C512       C1270   1.472       .  S
O513       Cr527   1.956       .  S
O514       Cr527   2.010       .  S
O514        C515   1.265       .  A
C515       C1198   1.481       .  S
O516       Cr525   2.017       .  S
O516        C524   1.269       .  A
O517       Cr525   1.965       .  S
O517        C518   1.260       .  A
C518        O519   1.274       .  A
C518       C1222   1.496       .  S
O519       Cr526   2.026       .  S
O520       Cr526   1.968       .  S
O520        C521   1.258       .  A
C521        O522   1.268       .  A
C521       C1405   1.479       .  S
O522       Cr527   2.024       .  S
O523       Cr527   1.972       .  S
O523        C524   1.260       .  A
C524       C1462   1.481       .  S
Cr525       O528   1.763       .  S
Cr526       O528   1.770       .  S
Cr527       O528   1.764       .  S
O529       Cr547   2.016   1_455  S
O529        C537   1.271       .  A
O530       Cr547   1.953       .  S
O530        C531   1.255       .  A
C531        O532   1.270       .  A
C531       C1165   1.485       .  S
O532       Cr548   2.029       .  S
O533       Cr548   1.989       .  S
O533        C534   1.259       .  A
C534        O535   1.261   1_655  A
C534       C1894   1.485       .  S
O535       Cr549   2.004       .  S
O536       Cr549   1.975       .  S
O536        C537   1.263       .  A
C537       C1150   1.484       .  S
O538       Cr547   1.981   1_455  S
O538        C546   1.261       .  A
O539       Cr547   2.024       .  S
O539        C540   1.268       .  A
C540        O541   1.257       .  A
C540       C1093   1.484       .  S
O541       Cr548   1.960       .  S
O542       Cr548   2.032       .  S
O542        C543   1.276   1_655  A
C543        O544   1.261       .  A
C543       C1117   1.472       .  S
O544       Cr549   1.961       .  S
O545       Cr549   2.004       .  S
O545        C546   1.262       .  A
C546       C1078   1.487       .  S
Cr547       O550   1.762       .  S
Cr548       O550   1.767       .  S
Cr549       O550   1.770   1_455  S
O551       Cr569   2.017   1_455  S
O551        C559   1.269       .  A
O552       Cr569   1.956       .  S
O552        C553   1.253       .  A
C553        O554   1.272       .  A
C553       C1045   1.479       .  S
O554       Cr570   2.035       .  S
O555       Cr570   1.981       .  S
O555        C556   1.261       .  A
C556        O557   1.267   1_655  A
C556       C1822   1.485       .  S
O557       Cr571   2.016       .  S
O558       Cr571   1.966       .  S
O558        C559   1.258       .  A
C559       C1126   1.475       .  S
O560       Cr569   1.968   1_455  S
O560        C568   1.259       .  A
O561       Cr569   2.029       .  S
O561        C562   1.269       .  A
C562        O563   1.257       .  A
C562       C1021   1.477       .  S
O563       Cr570   1.963       .  S
O564       Cr570   2.027       .  S
O564        C565   1.274   1_655  A
C565        O566   1.260       .  A
C565       C1141   1.485       .  S
O566       Cr571   1.959       .  S
O567       Cr571   2.017       .  S
O567        C568   1.268       .  A
C568        C997   1.484       .  S
Cr569       O572   1.766       .  S
Cr570       O572   1.767       .  S
Cr571       O572   1.768   1_455  S
O573       Cr591   1.984       .  S
O573        C581   1.264   1_554  A
O574       Cr591   2.004       .  S
O574        C575   1.263       .  A
C575        O576   1.260       .  A
C575       C1438   1.485       .  S
O576       Cr592   1.985       .  S
O577       Cr592   2.032       .  S
O577        C578   1.271       .  A
C578        O579   1.252       .  A
C578       C1030   1.476   1_554  S
O579       Cr593   1.953       .  S
O580       Cr593   2.009       .  S
O580        C581   1.266   1_554  A
C581        C949   1.497       .  S
O582       Cr591   2.016       .  S
O582        C590   1.267       .  A
O583       Cr591   1.969       .  S
O583        C584   1.263       .  A
C584        O585   1.274       .  A
C584        C982   1.486       .  S
O585       Cr592   2.027       .  S
O586       Cr592   1.968       .  S
O586        C587   1.258       .  A
C587        O588   1.267       .  A
C587       C1174   1.478       .  S
O588       Cr593   2.019       .  S
O589       Cr593   1.966       .  S
O589        C590   1.258       .  A
C590        C925   1.479       .  S
Cr591       O594   1.769       .  S
Cr592       O594   1.770       .  S
Cr593       O594   1.761       .  S
O595       Cr613   1.976       .  S
O595        C603   1.258       .  A
O596       Cr613   2.015       .  S
O596        C597   1.266       .  A
C597        O598   1.261       .  A
C597       C1486   1.491       .  S
O598       Cr614   1.991       .  S
O599       Cr614   2.038       .  S
O599        C600   1.271       .  A
C600        O601   1.251       .  A
C600       C1102   1.480       .  S
O601       Cr615   1.953       .  S
O602       Cr615   2.017       .  S
O602        C603   1.270       .  A
C603        C973   1.498       .  S
O604       Cr613   2.023       .  S
O604        C612   1.271       .  A
O605       Cr613   1.962       .  S
O605        C606   1.262       .  A
C606        O607   1.275       .  A
C606        C958   1.498       .  S
O607       Cr614   2.032       .  S
O608       Cr614   1.964       .  S
O608        C609   1.258       .  A
C609        O610   1.271       .  A
C609       C1054   1.482       .  S
O610       Cr615   2.032       .  S
O611       Cr615   1.967       .  S
O611        C612   1.257       .  A
C612        C901   1.496       .  S
Cr613       O616   1.765       .  S
Cr614       O616   1.764       .  S
Cr615       O616   1.762       .  S
O617       Cr635   2.021       .  S
O617        C625   1.271       .  A
O618       Cr635   1.935       .  S
O618        C619   1.247       .  A
C619        O620   1.274       .  A
C619        C877   1.492       .  S
O620       Cr636   2.058       .  S
O621       Cr636   1.998       .  S
O621        C622   1.263       .  A
C622        O623   1.260       .  A
C622       C1246   1.492       .  S
O623       Cr637   1.997       .  S
O624       Cr637   1.978       .  S
O624        C625   1.262       .  A
C625        C838   1.495       .  S
O626       Cr635   1.976       .  S
O626        C634   1.259       .  A
O627       Cr635   2.030       .  S
O627        C628   1.270       .  A
C628        O629   1.256       .  A
C628        C805   1.477       .  S
O629       Cr636   1.972       .  S
O630       Cr636   2.035       .  S
O630        C631   1.277       .  A
C631        O632   1.264       .  A
C631        C862   1.492       .  S
O632       Cr637   1.958       .  S
O633       Cr637   2.012       .  S
O633        C634   1.265       .  A
C634       C1069   1.470       .  S
Cr635       O638   1.751       .  S
Cr636       O638   1.766       .  S
Cr637       O638   1.765       .  S
O639       Cr657   2.021   1_554  S
O639        C647   1.271       .  A
O640       Cr657   1.950   1_554  S
O640        C641   1.252       .  A
C641        O642   1.274   1_554  A
C641        C781   1.494       .  S
O642       Cr658   2.057       .  S
O643       Cr658   1.983       .  S
O643        C644   1.260       .  A
C644        O645   1.265       .  A
C644       C1318   1.488       .  S
O645       Cr659   2.012       .  S
O646       Cr659   1.969   1_554  S
O646        C647   1.259       .  A
C647        C853   1.490       .  S
O648       Cr657   1.973       .  S
O648        C656   1.260       .  A
O649       Cr657   2.039       .  S
O649        C650   1.272       .  A
C650        O651   1.254       .  A
C650        C766   1.488       .  S
O651       Cr658   1.962       .  S
O652       Cr658   2.044       .  S
O652        C653   1.279       .  A
C653        O654   1.259       .  A
C653        C829   1.499       .  S
O654       Cr659   1.961       .  S
O655       Cr659   2.013       .  S
O655        C656   1.268       .  A
C656       C1006   1.486       .  S
Cr657       O660   1.761       .  S
Cr658       O660   1.762       .  S
Cr659       O660   1.763       .  S
O661       Cr679   1.970       .  S
O661        C669   1.259       .  A
O662       Cr679   2.006       .  S
O662        C663   1.263   1_655  A
C663        O664   1.262       .  A
C663       C2062   1.481       .  S
O664       Cr680   1.988       .  S
O665       Cr680   2.044       .  S
O665        C666   1.273       .  A
C666        O667   1.252       .  A
C666        C814   1.485       .  S
O667       Cr681   1.947       .  S
O668       Cr681   2.021   1_655  S
O668        C669   1.270       .  A
C669        C733   1.480       .  S
O670       Cr679   2.008       .  S
O670        C678   1.265       .  A
O671       Cr679   1.963       .  S
O671        C672   1.260   1_655  A
C672        O673   1.276       .  A
C672        C718   1.490   1_455  S
O673       Cr680   2.033       .  S
O674       Cr680   1.966       .  S
O674        C675   1.258       .  A
C675        O676   1.269       .  A
C675        C790   1.480       .  S
O676       Cr681   2.029       .  S
O677       Cr681   1.970   1_655  S
O677        C678   1.258       .  A
C678        C934   1.469       .  S
Cr679       O682   1.771   1_655  S
Cr680       O682   1.770       .  S
Cr681       O682   1.768       .  S
O683       Cr701   2.026       .  S
O683        C691   1.271       .  A
O684       Cr701   1.981   1_455  S
O684        C685   1.257       .  A
C685        O686   1.264       .  A
C685       C2005   1.496       .  S
O686       Cr702   2.013       .  S
O687       Cr702   2.000       .  S
O687        C688   1.266       .  A
C688        O689   1.262       .  A
C688        C757   1.468       .  S
O689       Cr703   1.983       .  S
O690       Cr703   1.958       .  S
O690        C691   1.259   1_455  A
C691        C709   1.490       .  S
O692       Cr701   1.982       .  S
O692        C700   1.255       .  A
O693       Cr701   2.017       .  S
O693        C694   1.270   1_655  A
C694        O695   1.260       .  A
C694        C742   1.483       .  S
O695       Cr702   1.957       .  S
O696       Cr702   2.002       .  S
O696        C697   1.264       .  A
C697        O698   1.263       .  A
C697        C886   1.473       .  S
O698       Cr703   1.993       .  S
O699       Cr703   1.999   1_655  S
O699        C700   1.260       .  A
C700        C910   1.484       .  S
Cr701       O704   1.779   1_655  S
Cr702       O704   1.780       .  S
Cr703       O704   1.774       .  S
C705        C706   1.403       .  A
C705        C710   1.409       .  A
C705        H715   1.082       .  S
C706        C711   1.484       .  S
C706        C707   1.410       .  A
C707        C708   1.396       .  A
C707        S712   1.805   1_655  S
C708        C709   1.407       .  A
C708        H713   1.084   1_655  S
C709        C710   1.417       .  A
C710        S714   1.803       .  S
C711        C716   1.411   1_655  A
C711        C720   1.400   1_556  A
S712        H728   1.406   1_455  S
S714        H725   1.407       .  S
C716        C717   1.403   1_556  A
C716        S721   1.808       .  S
C717        C718   1.406   1_455  A
C717        H722   1.082       .  S
C718        C719   1.421       .  A
C719        C720   1.401       .  A
C719        S723   1.803       .  S
C720        H724   1.084   1_554  S
S721        H726   1.406       .  S
S723        H727   1.407       .  S
C729        C730   1.397       .  A
C729        C734   1.394       .  A
C729        H739   1.085   1_655  S
C730        C735   1.479       .  S
C730        C731   1.414       .  A
C731        C732   1.404       .  A
C731        S736   1.803       .  S
C732        C733   1.405       .  A
C732        H737   1.084       .  S
C733        C734   1.418       .  A
C734        S738   1.801   1_655  S
C735        C740   1.407   1_655  A
C735        C744   1.405       .  A
S736        H752   1.406       .  S
S738        H749   1.401       .  S
C740        C741   1.396       .  A
C740        S745   1.807       .  S
C741        C742   1.407       .  A
C741        H746   1.083       .  S
C742        C743   1.415   1_455  A
C743        C744   1.404       .  A
C743        S747   1.801       .  S
C744        H748   1.084       .  S
S745        H750   1.406       .  S
S747        H751   1.407       .  S
C753        C754   1.405       .  A
C753        C758   1.398       .  A
C753        H763   1.084       .  S
C754        C759   1.495       .  S
C754        C755   1.417       .  A
C755        C756   1.404       .  A
C755        S760   1.805       .  S
C756        C757   1.404       .  A
C756        H761   1.084       .  S
C757        C758   1.410       .  A
C758        S762   1.803       .  S
C759        C764   1.418       .  A
C759        C768   1.400       .  A
S760        H776   1.406       .  S
S762        H773   1.406       .  S
C764        C765   1.409       .  A
C764        S769   1.808       .  S
C765        C766   1.404       .  A
C765        H770   1.083       .  S
C766        C767   1.422       .  A
C767        C768   1.397       .  A
C767        S771   1.805       .  S
C768        H772   1.084       .  S
S769        H774   1.407       .  S
S771        H775   1.402       .  S
C777        C778   1.405       .  A
C777        C782   1.404       .  A
C777        H787   1.084       .  S
C778        C783   1.491       .  S
C778        C779   1.411       .  A
C779        C780   1.400       .  A
C779        S784   1.804       .  S
C780        C781   1.411       .  A
C780        H785   1.084       .  S
C781        C782   1.416       .  A
C782        S786   1.796   1_554  S
C783        C788   1.409       .  A
C783        C792   1.409       .  A
S784        H800   1.405       .  S
S786        H797   1.407       .  S
C788        C789   1.403       .  A
C788        S793   1.807       .  S
C789        C790   1.406       .  A
C789        H794   1.083       .  S
C790        C791   1.410       .  A
C791        C792   1.405       .  A
C791        S795   1.803       .  S
C792        H796   1.084       .  S
S793        H798   1.407       .  S
S795        H799   1.406       .  S
C801        C802   1.409       .  A
C801        C806   1.405       .  A
C801        H811   1.084       .  S
C802        C807   1.496       .  S
C802        C803   1.415       .  A
C803        C804   1.399       .  A
C803        S808   1.803       .  S
C804        C805   1.402       .  A
C804        H809   1.082       .  S
C805        C806   1.412       .  A
C806        S810   1.803       .  S
C807        C812   1.415       .  A
C807        C816   1.404       .  A
S808        H824   1.406       .  S
S810        H821   1.403       .  S
C812        C813   1.408       .  A
C812        S817   1.807       .  S
C813        C814   1.406       .  A
C813        H818   1.082       .  S
C814        C815   1.415       .  A
C815        C816   1.401       .  A
C815        S819   1.808       .  S
C816        H820   1.083       .  S
S817        H822   1.407       .  S
S819        H823   1.407       .  S
C825        C826   1.400       .  A
C825        C830   1.406       .  A
C825        H835   1.083       .  S
C826        C831   1.493       .  S
C826        C827   1.412       .  A
C827        C828   1.408       .  A
C827        S832   1.806       .  S
C828        C829   1.407       .  A
C828        H833   1.082       .  S
C829        C830   1.424       .  A
C830        S834   1.811       .  S
C831        C836   1.410       .  A
C831        C840   1.405       .  A
S832        H848   1.407       .  S
S834        H845   1.407       .  S
C836        C837   1.406       .  A
C836        S841   1.807       .  S
C837        C838   1.410       .  A
C837        H842   1.083       .  S
C838        C839   1.417       .  A
C839        C840   1.405       .  A
C839        S843   1.802       .  S
C840        H844   1.084       .  S
S841        H846   1.407       .  S
S843        H847   1.408       .  S
C849        C850   1.401       .  A
C849        C854   1.400       .  A
C849        H859   1.084       .  S
C850        C855   1.485       .  S
C850        C851   1.412       .  A
C851        C852   1.401       .  A
C851        S856   1.805       .  S
C852        C853   1.408       .  A
C852        H857   1.083       .  S
C853        C854   1.420       .  A
C854        S858   1.803       .  S
C855        C860   1.407       .  A
C855        C864   1.403       .  A
S856        H872   1.406       .  S
S858        H869   1.408       .  S
C860        C861   1.400       .  A
C860        S865   1.808       .  S
C861        C862   1.410       .  A
C861        H866   1.082       .  S
C862        C863   1.418       .  A
C863        C864   1.406       .  A
C863        S867   1.808       .  S
C864        H868   1.083       .  S
S865        H870   1.407       .  S
S867        H871   1.407       .  S
C873        C874   1.401       .  A
C873        C878   1.395       .  A
C873        H883   1.082       .  S
C874        C879   1.498       .  S
C874        C875   1.419       .  A
C875        C876   1.409       .  A
C875        S880   1.803       .  S
C876        C877   1.406       .  A
C876        H881   1.083       .  S
C877        C878   1.420       .  A
C878        S882   1.811       .  S
C879        C884   1.419       .  A
C879        C888   1.406       .  A
S880        H896   1.406       .  S
S882        H893   1.406       .  S
C884        C885   1.411       .  A
C884        S889   1.808       .  S
C885        C886   1.403       .  A
C885        H890   1.082       .  S
C886        C887   1.408       .  A
C887        C888   1.394       .  A
C887        S891   1.802       .  S
C888        H892   1.083       .  S
S889        H894   1.406       .  S
S891        H895   1.405       .  S
C897        C898   1.402       .  A
C897        C902   1.400       .  A
C897        H907   1.084       .  S
C898        C903   1.489       .  S
C898        C899   1.413       .  A
C899        C900   1.402       .  A
C899        S904   1.803       .  S
C900        C901   1.409       .  A
C900        H905   1.083       .  S
C901        C902   1.423       .  A
C902        S906   1.803       .  S
C903        C908   1.412       .  A
C903        C912   1.404       .  A
S904        H920   1.406       .  S
S906        H917   1.408       .  S
C908        C909   1.404       .  A
C908        S913   1.808       .  S
C909        C910   1.405       .  A
C909        H914   1.083       .  S
C910        C911   1.416       .  A
C911        C912   1.402       .  A
C911        S915   1.803       .  S
C912        H916   1.084       .  S
S913        H918   1.407       .  S
S915        H919   1.407       .  S
C921        C922   1.403       .  A
C921        C926   1.398       .  A
C921        H931   1.084       .  S
C922        C927   1.478       .  S
C922        C923   1.411       .  A
C923        C924   1.397       .  A
C923        S928   1.804       .  S
C924        C925   1.406       .  A
C924        H929   1.084       .  S
C925        C926   1.414       .  A
C926        S930   1.801       .  S
C927        C932   1.410       .  A
C927        C936   1.402       .  A
S928        H944   1.406       .  S
S930        H941   1.406       .  S
C932        C933   1.402       .  A
C932        S937   1.807       .  S
C933        C934   1.403       .  A
C933        H938   1.083       .  S
C934        C935   1.412       .  A
C935        C936   1.397       .  A
C935        S939   1.803       .  S
C936        H940   1.084       .  S
S937        H942   1.407       .  S
S939        H943   1.406       .  S
C945        C946   1.403       .  A
C945        C950   1.402       .  A
C945        H955   1.083       .  S
C946        C951   1.491       .  S
C946        C947   1.412       .  A
C947        C948   1.401       .  A
C947        S952   1.804       .  S
C948        C949   1.409       .  A
C948        H953   1.083       .  S
C949        C950   1.422       .  A
C950        S954   1.802       .  S
C951        C956   1.409       .  A
C951        C960   1.405       .  A
S952        H968   1.407       .  S
S954        H965   1.408       .  S
C956        C957   1.404       .  A
C956        S961   1.809       .  S
C957        C958   1.413       .  A
C957        H962   1.082       .  S
C958        C959   1.418       .  A
C959        C960   1.403       .  A
C959        S963   1.800       .  S
C960        H964   1.084       .  S
S961        H966   1.407       .  S
S963        H967   1.408       .  S
C969        C970   1.402       .  A
C969        C974   1.403       .  A
C969        H979   1.084       .  S
C970        C975   1.490       .  S
C970        C971   1.414       .  A
C971        C972   1.402       .  A
C971        S976   1.805       .  S
C972        C973   1.409       .  A
C972        H977   1.083       .  S
C973        C974   1.423       .  A
C974        S978   1.803       .  S
C975        C980   1.413       .  A
C975        C984   1.402       .  A
S976        H992   1.405       .  S
S978        H989   1.408       .  S
C980        C981   1.406       .  A
C980        S985   1.804       .  S
C981        C982   1.405       .  A
C981        H986   1.083       .  S
C982        C983   1.416       .  A
C983        C984   1.401       .  A
C983        S987   1.803       .  S
C984        H988   1.084       .  S
S985        H990   1.407       .  S
S987        H991   1.407       .  S
C993        C994   1.402       .  A
C993        C998   1.398       .  A
C993       H1003   1.084       .  S
C994        C999   1.481       .  S
C994        C995   1.411       .  A
C995        C996   1.399       .  A
C995       S1000   1.804       .  S
C996        C997   1.408       .  A
C996       H1001   1.084       .  S
C997        C998   1.417       .  A
C998       S1002   1.802       .  S
C999       C1004   1.408       .  A
C999       C1008   1.401       .  A
S1000      H1016   1.406       .  S
S1002      H1013   1.408       .  S
C1004      C1005   1.402       .  A
C1004      S1009   1.808       .  S
C1005      C1006   1.408       .  A
C1005      H1010   1.082       .  S
C1006      C1007   1.418       .  A
C1007      C1008   1.399       .  A
C1007      S1011   1.803       .  S
C1008      H1012   1.084       .  S
S1009      H1014   1.407       .  S
S1011      H1015   1.408       .  S
C1017      C1018   1.408       .  A
C1017      C1022   1.405       .  A
C1017      H1027   1.084       .  S
C1018      C1023   1.485       .  S
C1018      C1019   1.410       .  A
C1019      C1020   1.396       .  A
C1019      S1024   1.805       .  S
C1020      C1021   1.405       .  A
C1020      H1025   1.085       .  S
C1021      C1022   1.411       .  A
C1022      S1026   1.803       .  S
C1023      C1028   1.413       .  A
C1023      C1032   1.402       .  A
S1024      H1040   1.406       .  S
S1026      H1037   1.406       .  S
C1028      C1029   1.403   1_556  A
C1028      S1033   1.806   1_556  S
C1029      C1030   1.404   1_554  A
C1029      H1034   1.083       .  S
C1030      C1031   1.415       .  A
C1031      C1032   1.400       .  A
C1031      S1035   1.805       .  S
C1032      H1036   1.084       .  S
S1033      H1038   1.407       .  S
S1035      H1039   1.407       .  S
C1041      C1042   1.404       .  A
C1041      C1046   1.401       .  A
C1041      H1051   1.084       .  S
C1042      C1047   1.485       .  S
C1042      C1043   1.414       .  A
C1043      C1044   1.399       .  A
C1043      S1048   1.805       .  S
C1044      C1045   1.405       .  A
C1044      H1049   1.083       .  S
C1045      C1046   1.415       .  A
C1046      S1050   1.803       .  S
C1047      C1052   1.413       .  A
C1047      C1056   1.398       .  A
S1048      H1064   1.406       .  S
S1050      H1061   1.406       .  S
C1052      C1053   1.407       .  A
C1052      S1057   1.806       .  S
C1053      C1054   1.403       .  A
C1053      H1058   1.083       .  S
C1054      C1055   1.418       .  A
C1055      C1056   1.400       .  A
C1055      S1059   1.810       .  S
C1056      H1060   1.083       .  S
S1057      H1062   1.407       .  S
S1059      H1063   1.407       .  S
C1065      C1066   1.403       .  A
C1065      C1070   1.397       .  A
C1065      H1075   1.084       .  S
C1066      C1071   1.479       .  S
C1066      C1067   1.413       .  A
C1067      C1068   1.398       .  A
C1067      S1072   1.804       .  S
C1068      C1069   1.403       .  A
C1068      H1073   1.084       .  S
C1069      C1070   1.411       .  A
C1070      S1074   1.802       .  S
C1071      C1076   1.409       .  A
C1071      C1080   1.398       .  A
S1072      H1088   1.406       .  S
S1074      H1085   1.406       .  S
C1076      C1077   1.402       .  A
C1076      S1081   1.807       .  S
C1077      C1078   1.408       .  A
C1077      H1082   1.082       .  S
C1078      C1079   1.421       .  A
C1079      C1080   1.396       .  A
C1079      S1083   1.802       .  S
C1080      H1084   1.084       .  S
S1081      H1086   1.407       .  S
S1083      H1087   1.407       .  S
C1089      C1090   1.407       .  A
C1089      C1094   1.405       .  A
C1089      H1099   1.084       .  S
C1090      C1095   1.485       .  S
C1090      C1091   1.410       .  A
C1091      C1092   1.397       .  A
C1091      S1096   1.805       .  S
C1092      C1093   1.407       .  A
C1092      H1097   1.084       .  S
C1093      C1094   1.413       .  A
C1094      S1098   1.803       .  S
C1095      C1100   1.412       .  A
C1095      C1104   1.401       .  A
S1096      H1112   1.406       .  S
S1098      H1109   1.406       .  S
C1100      C1101   1.405       .  A
C1100      S1105   1.808       .  S
C1101      C1102   1.407       .  A
C1101      H1106   1.082       .  S
C1102      C1103   1.414       .  A
C1103      C1104   1.399       .  A
C1103      S1107   1.801       .  S
C1104      H1108   1.084       .  S
S1105      H1110   1.407       .  S
S1107      H1111   1.407       .  S
C1113      C1114   1.400       .  A
C1113      C1118   1.392       .  A
C1113      H1123   1.085       .  S
C1114      C1119   1.485       .  S
C1114      C1115   1.417       .  A
C1115      C1116   1.405       .  A
C1115      S1120   1.803       .  S
C1116      C1117   1.402       .  A
C1116      H1121   1.084       .  S
C1117      C1118   1.415       .  A
C1118      S1122   1.801   1_455  S
C1119      C1124   1.415       .  A
C1119      C1128   1.399       .  A
S1120      H1136   1.406       .  S
S1122      H1133   1.398   1_655  S
C1124      C1125   1.404       .  A
C1124      S1129   1.808       .  S
C1125      C1126   1.402       .  A
C1125      H1130   1.083       .  S
C1126      C1127   1.417       .  A
C1127      C1128   1.395       .  A
C1127      S1131   1.803   1_455  S
C1128      H1132   1.084   1_455  S
S1129      H1134   1.407       .  S
S1131      H1135   1.402       .  S
C1137      C1138   1.403       .  A
C1137      C1142   1.402   1_554  A
C1137      H1147   1.084   1_455  S
C1138      C1143   1.480       .  S
C1138      C1139   1.411       .  A
C1139      C1140   1.398   1_554  A
C1139      S1144   1.806       .  S
C1140      C1141   1.409       .  A
C1140      H1145   1.084       .  S
C1141      C1142   1.414       .  A
C1142      S1146   1.801   1_455  S
C1143      C1148   1.409       .  A
C1143      C1152   1.401       .  A
S1144      H1160   1.405       .  S
S1146      H1157   1.408       .  S
C1148      C1149   1.401       .  A
C1148      S1153   1.807   1_455  S
C1149      C1150   1.407       .  A
C1149      H1154   1.083   1_455  S
C1150      C1151   1.416       .  A
C1151      C1152   1.401       .  A
C1151      S1155   1.802       .  S
C1152      H1156   1.084       .  S
S1153      H1158   1.407       .  S
S1155      H1159   1.407       .  S
C1161      C1162   1.404       .  A
C1161      C1166   1.401       .  A
C1161      H1171   1.084       .  S
C1162      C1167   1.487       .  S
C1162      C1163   1.412       .  A
C1163      C1164   1.398       .  A
C1163      S1168   1.803       .  S
C1164      C1165   1.408       .  A
C1164      H1169   1.085       .  S
C1165      C1166   1.416       .  A
C1166      S1170   1.799       .  S
C1167      C1172   1.409       .  A
C1167      C1176   1.407       .  A
S1168      H1184   1.402       .  S
S1170      H1181   1.407       .  S
C1172      C1173   1.402       .  A
C1172      S1177   1.807       .  S
C1173      C1174   1.406       .  A
C1173      H1178   1.083       .  S
C1174      C1175   1.411       .  A
C1175      C1176   1.402       .  A
C1175      S1179   1.803       .  S
C1176      H1180   1.084       .  S
S1177      H1182   1.406       .  S
S1179      H1183   1.407       .  S
C1185      C1186   1.404       .  A
C1185      C1190   1.402       .  A
C1185      H1195   1.084       .  S
C1186      C1191   1.488       .  S
C1186      C1187   1.411       .  A
C1187      C1188   1.400       .  A
C1187      S1192   1.804       .  S
C1188      C1189   1.409       .  A
C1188      H1193   1.083       .  S
C1189      C1190   1.418       .  A
C1190      S1194   1.799       .  S
C1191      C1196   1.410       .  A
C1191      C1200   1.406       .  A
S1192      H1208   1.406       .  S
S1194      H1205   1.407       .  S
C1196      C1197   1.401       .  A
C1196      S1201   1.808       .  S
C1197      C1198   1.405       .  A
C1197      H1202   1.081       .  S
C1198      C1199   1.413       .  A
C1199      C1200   1.403       .  A
C1199      S1203   1.803       .  S
C1200      H1204   1.083       .  S
S1201      H1206   1.407       .  S
S1203      H1207   1.407       .  S
C1209      C1210   1.402       .  A
C1209      C1214   1.401       .  A
C1209      H1219   1.084       .  S
C1210      C1215   1.479       .  S
C1210      C1211   1.411       .  A
C1211      C1212   1.397       .  A
C1211      S1216   1.804       .  S
C1212      C1213   1.405       .  A
C1212      H1217   1.084       .  S
C1213      C1214   1.417       .  A
C1214      S1218   1.803       .  S
C1215      C1220   1.407       .  A
C1215      C1224   1.396       .  A
S1216      H1232   1.405       .  S
S1218      H1229   1.408       .  S
C1220      C1221   1.404       .  A
C1220      S1225   1.807       .  S
C1221      C1222   1.410   1_554  A
C1221      H1226   1.082   1_554  S
C1222      C1223   1.425       .  A
C1223      C1224   1.402   1_556  A
C1223      S1227   1.809       .  S
C1224      H1228   1.083       .  S
S1225      H1230   1.406       .  S
S1227      H1231   1.407       .  S
C1233      C1234   1.403       .  A
C1233      C1238   1.402       .  A
C1233      H1243   1.084       .  S
C1234      C1239   1.480       .  S
C1234      C1235   1.411       .  A
C1235      C1236   1.398       .  A
C1235      S1240   1.805       .  S
C1236      C1237   1.405       .  A
C1236      H1241   1.084       .  S
C1237      C1238   1.414       .  A
C1238      S1242   1.804       .  S
C1239      C1244   1.409       .  A
C1239      C1248   1.397       .  A
S1240      H1256   1.406       .  S
S1242      H1253   1.406       .  S
C1244      C1245   1.405       .  A
C1244      S1249   1.806       .  S
C1245      C1246   1.408       .  A
C1245      H1250   1.082       .  S
C1246      C1247   1.423       .  A
C1247      C1248   1.398       .  A
C1247      S1251   1.802       .  S
C1248      H1252   1.084       .  S
S1249      H1254   1.406       .  S
S1251      H1255   1.406       .  S
C1257      C1258   1.406       .  A
C1257      C1262   1.405       .  A
C1257      H1267   1.084       .  S
C1258      C1263   1.479       .  S
C1258      C1259   1.406       .  A
C1259      C1260   1.394       .  A
C1259      S1264   1.806       .  S
C1260      C1261   1.412       .  A
C1260      H1265   1.083       .  S
C1261      C1262   1.416       .  A
C1262      S1266   1.799       .  S
C1263      C1268   1.409       .  A
C1263      C1272   1.403       .  A
S1264      H1280   1.405       .  S
S1266      H1277   1.407       .  S
C1268      C1269   1.401       .  A
C1268      S1273   1.808       .  S
C1269      C1270   1.405       .  A
C1269      H1274   1.082       .  S
C1270      C1271   1.411       .  A
C1271      C1272   1.403       .  A
C1271      S1275   1.808       .  S
C1272      H1276   1.083       .  S
S1273      H1278   1.406       .  S
S1275      H1279   1.407       .  S
C1281      C1282   1.410       .  A
C1281      C1286   1.404       .  A
C1281      H1291   1.083       .  S
C1282      C1287   1.492       .  S
C1282      C1283   1.412       .  A
C1283      C1284   1.396       .  A
C1283      S1288   1.805       .  S
C1284      C1285   1.407       .  A
C1284      H1289   1.084       .  S
C1285      C1286   1.411       .  A
C1286      S1290   1.802       .  S
C1287      C1292   1.415       .  A
C1287      C1296   1.405       .  A
S1288      H1304   1.406       .  S
S1290      H1301   1.407       .  S
C1292      C1293   1.406       .  A
C1292      S1297   1.807       .  S
C1293      C1294   1.404       .  A
C1293      H1298   1.084       .  S
C1294      C1295   1.409       .  A
C1295      C1296   1.396       .  A
C1295      S1299   1.803       .  S
C1296      H1300   1.083       .  S
S1297      H1302   1.407       .  S
S1299      H1303   1.407       .  S
C1305      C1306   1.402       .  A
C1305      C1310   1.401       .  A
C1305      H1315   1.084       .  S
C1306      C1311   1.487       .  S
C1306      C1307   1.415   1_554  A
C1307      C1308   1.403   1_556  A
C1307      S1312   1.804       .  S
C1308      C1309   1.405       .  A
C1308      H1313   1.084   1_554  S
C1309      C1310   1.415       .  A
C1310      S1314   1.803       .  S
C1311      C1316   1.410   1_554  A
C1311      C1320   1.402       .  A
S1312      H1328   1.405       .  S
S1314      H1325   1.407       .  S
C1316      C1317   1.406       .  A
C1316      S1321   1.807       .  S
C1317      C1318   1.407       .  A
C1317      H1322   1.082       .  S
C1318      C1319   1.417   1_556  A
C1319      C1320   1.402       .  A
C1319      S1323   1.804       .  S
C1320      H1324   1.084       .  S
S1321      H1326   1.406       .  S
S1323      H1327   1.408       .  S
C1329      C1330   1.405       .  A
C1329      C1334   1.403       .  A
C1329      H1339   1.084       .  S
C1330      C1335   1.491       .  S
C1330      C1331   1.414       .  A
C1331      C1332   1.400       .  A
C1331      S1336   1.805       .  S
C1332      C1333   1.409       .  A
C1332      H1337   1.084       .  S
C1333      C1334   1.417       .  A
C1334      S1338   1.797       .  S
C1335      C1340   1.416       .  A
C1335      C1344   1.400       .  A
S1336      H1352   1.402       .  S
S1338      H1349   1.407       .  S
C1340      C1341   1.409       .  A
C1340      S1345   1.807       .  S
C1341      C1342   1.402       .  A
C1341      H1346   1.083       .  S
C1342      C1343   1.417       .  A
C1343      C1344   1.402       .  A
C1343      S1347   1.809       .  S
C1344      H1348   1.083       .  S
S1345      H1350   1.407       .  S
S1347      H1351   1.406       .  S
C1353      C1354   1.410       .  A
C1353      C1358   1.410       .  A
C1353      H1363   1.083       .  S
C1354      C1359   1.495       .  S
C1354      C1355   1.414       .  A
C1355      C1356   1.395       .  A
C1355      S1360   1.804       .  S
C1356      C1357   1.404       .  A
C1356      H1361   1.084       .  S
C1357      C1358   1.414       .  A
C1358      S1362   1.802       .  S
C1359      C1364   1.412       .  A
C1359      C1368   1.407       .  A
S1360      H1376   1.401       .  S
S1362      H1373   1.407       .  S
C1364      C1365   1.405       .  A
C1364      S1369   1.808       .  S
C1365      C1366   1.408       .  A
C1365      H1370   1.083       .  S
C1366      C1367   1.414       .  A
C1367      C1368   1.405       .  A
C1367      S1371   1.802       .  S
C1368      H1372   1.083       .  S
S1369      H1374   1.407       .  S
S1371      H1375   1.407       .  S
C1377      C1378   1.401       .  A
C1377      C1382   1.408       .  A
C1377      H1387   1.082       .  S
C1378      C1383   1.489       .  S
C1378      C1379   1.411       .  A
C1379      C1380   1.402       .  A
C1379      S1384   1.804       .  S
C1380      C1381   1.409       .  A
C1380      H1385   1.083       .  S
C1381      C1382   1.425       .  A
C1382      S1386   1.811       .  S
C1383      C1388   1.410       .  A
C1383      C1392   1.400       .  A
S1384      H1400   1.406       .  S
S1386      H1397   1.406       .  S
C1388      C1389   1.409       .  A
C1388      S1393   1.806       .  S
C1389      C1390   1.409       .  A
C1389      H1394   1.083       .  S
C1390      C1391   1.421       .  A
C1391      C1392   1.400       .  A
C1391      S1395   1.803       .  S
C1392      H1396   1.085       .  S
S1393      H1398   1.407       .  S
S1395      H1399   1.408       .  S
C1401      C1402   1.400       .  A
C1401      C1406   1.401       .  A
C1401      H1411   1.083       .  S
C1402      C1407   1.486       .  S
C1402      C1403   1.417       .  A
C1403      C1404   1.402       .  A
C1403      S1408   1.804       .  S
C1404      C1405   1.402       .  A
C1404      H1409   1.084       .  S
C1405      C1406   1.417       .  A
C1406      S1410   1.809       .  S
C1407      C1412   1.412       .  A
C1407      C1416   1.403       .  A
S1408      H1424   1.406       .  S
S1410      H1421   1.407       .  S
C1412      C1413   1.402   1_556  A
C1412      S1417   1.807   1_556  S
C1413      C1414   1.404   1_554  A
C1413      H1418   1.081       .  S
C1414      C1415   1.414       .  A
C1415      C1416   1.400       .  A
C1415      S1419   1.803       .  S
C1416      H1420   1.084       .  S
S1417      H1422   1.407       .  S
S1419      H1423   1.407       .  S
C1425      C1426   1.403       .  A
C1425      C1430   1.400       .  A
C1425      H1435   1.084       .  S
C1426      C1431   1.484   1_556  S
C1426      C1427   1.414   1_556  A
C1427      C1428   1.400       .  A
C1427      S1432   1.804       .  S
C1428      C1429   1.403   1_554  A
C1428      H1433   1.084       .  S
C1429      C1430   1.415       .  A
C1430      S1434   1.803       .  S
C1431      C1436   1.411   1_554  A
C1431      C1440   1.400       .  A
S1432      H1448   1.406       .  S
S1434      H1445   1.406       .  S
C1436      C1437   1.407   1_556  A
C1436      S1441   1.806       .  S
C1437      C1438   1.407       .  A
C1437      H1442   1.083   1_554  S
C1438      C1439   1.418       .  A
C1439      C1440   1.397       .  A
C1439      S1443   1.803       .  S
C1440      H1444   1.084       .  S
S1441      H1446   1.407       .  S
S1443      H1447   1.407       .  S
C1449      C1450   1.405       .  A
C1449      C1454   1.402       .  A
C1449      H1459   1.084       .  S
C1450      C1455   1.485       .  S
C1450      C1451   1.412       .  A
C1451      C1452   1.399       .  A
C1451      S1456   1.805       .  S
C1452      C1453   1.405       .  A
C1452      H1457   1.084       .  S
C1453      C1454   1.413       .  A
C1454      S1458   1.799       .  S
C1455      C1460   1.410       .  A
C1455      C1464   1.403       .  A
S1456      H1472   1.406       .  S
S1458      H1469   1.406       .  S
C1460      C1461   1.403       .  A
C1460      S1465   1.807       .  S
C1461      C1462   1.405       .  A
C1461      H1466   1.081       .  S
C1462      C1463   1.415       .  A
C1463      C1464   1.400       .  A
C1463      S1467   1.803       .  S
C1464      H1468   1.084       .  S
S1465      H1470   1.407       .  S
S1467      H1471   1.407       .  S
C1473      C1474   1.402       .  A
C1473      C1478   1.403       .  A
C1473      H1483   1.084       .  S
C1474      C1479   1.490       .  S
C1474      C1475   1.414       .  A
C1475      C1476   1.406       .  A
C1475      S1480   1.805       .  S
C1476      C1477   1.409       .  A
C1476      H1481   1.083       .  S
C1477      C1478   1.420       .  A
C1478      S1482   1.803       .  S
C1479      C1484   1.410       .  A
C1479      C1488   1.403       .  A
S1480      H1496   1.404       .  S
S1482      H1493   1.407       .  S
C1484      C1485   1.407       .  A
C1484      S1489   1.806       .  S
C1485      C1486   1.407       .  A
C1485      H1490   1.082       .  S
C1486      C1487   1.417       .  A
C1487      C1488   1.405       .  A
C1487      S1491   1.800       .  S
C1488      H1492   1.083       .  S
S1489      H1494   1.407       .  S
S1491      H1495   1.407       .  S
C1497      C1498   1.400       .  A
C1497      C1502   1.401       .  A
C1497      H1507   1.084       .  S
C1498      C1503   1.483       .  S
C1498      C1499   1.411       .  A
C1499      C1500   1.401       .  A
C1499      S1504   1.804       .  S
C1500      C1501   1.409       .  A
C1500      H1505   1.083       .  S
C1501      C1502   1.420       .  A
C1502      S1506   1.801       .  S
C1503      C1508   1.410       .  A
C1503      C1512   1.400       .  A
S1504      H1520   1.405       .  S
S1506      H1517   1.403       .  S
C1508      C1509   1.406       .  A
C1508      S1513   1.806       .  S
C1509      C1510   1.406       .  A
C1509      H1514   1.083       .  S
C1510      C1511   1.417       .  A
C1511      C1512   1.399       .  A
C1511      S1515   1.800       .  S
C1512      H1516   1.084       .  S
S1513      H1518   1.407       .  S
S1515      H1519   1.407       .  S
C1521      C1522   1.400       .  A
C1521      C1526   1.399       .  A
C1521      H1531   1.084       .  S
C1522      C1527   1.476       .  S
C1522      C1523   1.408       .  A
C1523      C1524   1.398       .  A
C1523      S1528   1.804       .  S
C1524      C1525   1.409       .  A
C1524      H1529   1.083       .  S
C1525      C1526   1.418       .  A
C1526      S1530   1.800       .  S
C1527      C1532   1.405       .  A
C1527      C1536   1.400       .  A
S1528      H1544   1.405       .  S
S1530      H1541   1.403       .  S
C1532      C1533   1.401       .  A
C1532      S1537   1.806       .  S
C1533      C1534   1.409       .  A
C1533      H1538   1.082       .  S
C1534      C1535   1.417       .  A
C1535      C1536   1.400       .  A
C1535      S1539   1.799       .  S
C1536      H1540   1.084       .  S
S1537      H1542   1.407       .  S
S1539      H1543   1.407       .  S
C1545      C1546   1.401       .  A
C1545      C1550   1.396       .  A
C1545      H1555   1.084       .  S
C1546      C1551   1.492       .  S
C1546      C1547   1.417       .  A
C1547      C1548   1.408       .  A
C1547      S1552   1.803       .  S
C1548      C1549   1.407       .  A
C1548      H1553   1.084       .  S
C1549      C1550   1.419       .  A
C1550      S1554   1.803       .  S
C1551      C1556   1.412       .  A
C1551      C1560   1.405       .  A
S1552      H1568   1.406       .  S
S1554      H1565   1.408       .  S
C1556      C1557   1.401       .  A
C1556      S1561   1.809       .  S
C1557      C1558   1.406       .  A
C1557      H1562   1.082       .  S
C1558      C1559   1.418       .  A
C1559      C1560   1.407       .  A
C1559      S1563   1.802       .  S
C1560      H1564   1.084       .  S
S1561      H1566   1.407       .  S
S1563      H1567   1.407       .  S
C1569      C1570   1.402       .  A
C1569      C1574   1.402       .  A
C1569      H1579   1.084       .  S
C1570      C1575   1.483       .  S
C1570      C1571   1.411       .  A
C1571      C1572   1.401       .  A
C1571      S1576   1.805       .  S
C1572      C1573   1.408       .  A
C1572      H1577   1.084       .  S
C1573      C1574   1.417       .  A
C1574      S1578   1.800       .  S
C1575      C1580   1.408       .  A
C1575      C1584   1.401       .  A
S1576      H1592   1.405       .  S
S1578      H1589   1.406       .  S
C1580      C1581   1.404       .  A
C1580      S1585   1.807       .  S
C1581      C1582   1.408       .  A
C1581      H1586   1.082       .  S
C1582      C1583   1.419       .  A
C1583      C1584   1.402       .  A
C1583      S1587   1.803       .  S
C1584      H1588   1.084       .  S
S1585      H1590   1.407       .  S
S1587      H1591   1.407       .  S
C1593      C1594   1.407       .  A
C1593      C1598   1.405       .  A
C1593      H1603   1.084       .  S
C1594      C1599   1.486       .  S
C1594      C1595   1.410       .  A
C1595      C1596   1.397       .  A
C1595      S1600   1.805       .  S
C1596      C1597   1.407       .  A
C1596      H1601   1.084       .  S
C1597      C1598   1.412       .  A
C1598      S1602   1.803       .  S
C1599      C1604   1.413       .  A
C1599      C1608   1.403       .  A
S1600      H1616   1.406       .  S
S1602      H1613   1.406       .  S
C1604      C1605   1.404       .  A
C1604      S1609   1.808       .  S
C1605      C1606   1.405       .  A
C1605      H1610   1.082       .  S
C1606      C1607   1.416       .  A
C1607      C1608   1.401       .  A
C1607      S1611   1.805       .  S
C1608      H1612   1.084       .  S
S1609      H1614   1.406       .  S
S1611      H1615   1.406       .  S
C1617      C1618   1.402       .  A
C1617      C1622   1.398       .  A
C1617      H1627   1.084       .  S
C1618      C1623   1.480       .  S
C1618      C1619   1.414       .  A
C1619      C1620   1.398       .  A
C1619      S1624   1.805       .  S
C1620      C1621   1.404       .  A
C1620      H1625   1.084       .  S
C1621      C1622   1.413       .  A
C1622      S1626   1.802       .  S
C1623      C1628   1.413       .  A
C1623      C1632   1.396       .  A
S1624      H1640   1.406       .  S
S1626      H1637   1.405       .  S
C1628      C1629   1.406       .  A
C1628      S1633   1.806       .  S
C1629      C1630   1.402       .  A
C1629      H1634   1.082       .  S
C1630      C1631   1.419       .  A
C1631      C1632   1.397       .  A
C1631      S1635   1.811       .  S
C1632      H1636   1.083       .  S
S1633      H1638   1.407       .  S
S1635      H1639   1.406       .  S
C1641      C1642   1.402       .  A
C1641      C1646   1.399       .  A
C1641      H1651   1.084       .  S
C1642      C1647   1.477       .  S
C1642      C1643   1.412       .  A
C1643      C1644   1.400       .  A
C1643      S1648   1.805       .  S
C1644      C1645   1.404       .  A
C1644      H1649   1.084       .  S
C1645      C1646   1.414       .  A
C1646      S1650   1.805       .  S
C1647      C1652   1.406       .  A
C1647      C1656   1.399       .  A
S1648      H1664   1.404       .  S
S1650      H1661   1.404       .  S
C1652      C1653   1.402       .  A
C1652      S1657   1.807       .  S
C1653      C1654   1.409       .  A
C1653      H1658   1.082       .  S
C1654      C1655   1.420       .  A
C1655      C1656   1.400       .  A
C1655      S1659   1.801       .  S
C1656      H1660   1.084       .  S
S1657      H1662   1.407       .  S
S1659      H1663   1.405       .  S
C1665      C1666   1.409       .  A
C1665      C1670   1.408       .  A
C1665      H1675   1.083       .  S
C1666      C1671   1.482       .  S
C1666      C1667   1.408       .  A
C1667      C1668   1.387       .  A
C1667      S1672   1.808       .  S
C1668      C1669   1.410       .  A
C1668      H1673   1.083       .  S
C1669      C1670   1.414       .  A
C1670      S1674   1.800       .  S
C1671      C1676   1.409       .  A
C1671      C1680   1.402       .  A
S1672      H1688   1.407       .  S
S1674      H1685   1.407       .  S
C1676      C1677   1.403       .  A
C1676      S1681   1.808       .  S
C1677      C1678   1.409       .  A
C1677      H1682   1.082       .  S
C1678      C1679   1.418       .  A
C1679      C1680   1.395       .  A
C1679      S1683   1.801       .  S
C1680      H1684   1.084       .  S
S1681      H1686   1.407       .  S
S1683      H1687   1.408       .  S
C1689      C1690   1.409       .  A
C1689      C1694   1.403       .  A
C1689      H1699   1.084       .  S
C1690      C1695   1.487       .  S
C1690      C1691   1.411       .  A
C1691      C1692   1.398       .  A
C1691      S1696   1.804       .  S
C1692      C1693   1.405       .  A
C1692      H1697   1.084       .  S
C1693      C1694   1.409       .  A
C1694      S1698   1.803       .  S
C1695      C1700   1.408       .  A
C1695      C1704   1.403       .  A
S1696      H1712   1.407       .  S
S1698      H1709   1.406       .  S
C1700      C1701   1.402       .  A
C1700      S1705   1.807       .  S
C1701      C1702   1.409       .  A
C1701      H1706   1.083       .  S
C1702      C1703   1.419       .  A
C1703      C1704   1.405       .  A
C1703      S1707   1.810       .  S
C1704      H1708   1.083       .  S
S1705      H1710   1.406       .  S
S1707      H1711   1.406       .  S
C1713      C1714   1.403       .  A
C1713      C1718   1.406   1_556  A
C1713      H1723   1.083       .  S
C1714      C1719   1.487       .  S
C1714      C1715   1.411   1_556  A
C1715      C1716   1.399       .  A
C1715      S1720   1.804   1_554  S
C1716      C1717   1.408       .  A
C1716      H1721   1.084       .  S
C1717      C1718   1.420       .  A
C1718      S1722   1.809       .  S
C1719      C1724   1.409       .  A
C1719      C1728   1.402       .  A
S1720      H1736   1.406       .  S
S1722      H1733   1.407       .  S
C1724      C1725   1.402       .  A
C1724      S1729   1.809       .  S
C1725      C1726   1.408       .  A
C1725      H1730   1.082       .  S
C1726      C1727   1.421       .  A
C1727      C1728   1.407       .  A
C1727      S1731   1.809       .  S
C1728      H1732   1.082       .  S
S1729      H1734   1.407       .  S
S1731      H1735   1.406       .  S
C1737      C1738   1.402       .  A
C1737      C1742   1.401       .  A
C1737      H1747   1.084       .  S
C1738      C1743   1.480       .  S
C1738      C1739   1.415       .  A
C1739      C1740   1.401       .  A
C1739      S1744   1.809       .  S
C1740      C1741   1.404       .  A
C1740      H1745   1.084       .  S
C1741      C1742   1.414       .  A
C1742      S1746   1.803       .  S
C1743      C1748   1.407       .  A
C1743      C1752   1.400       .  A
S1744      H1760   1.401       .  S
S1746      H1757   1.407       .  S
C1748      C1749   1.405       .  A
C1748      S1753   1.805       .  S
C1749      C1750   1.410       .  A
C1749      H1754   1.083       .  S
C1750      C1751   1.418       .  A
C1751      C1752   1.400       .  A
C1751      S1755   1.801       .  S
C1752      H1756   1.084       .  S
S1753      H1758   1.407       .  S
S1755      H1759   1.405       .  S
C1761      C1762   1.405       .  A
C1761      C1766   1.410       .  A
C1761      H1771   1.083       .  S
C1762      C1767   1.491       .  S
C1762      C1763   1.410   1_545  A
C1763      C1764   1.400       .  A
C1763      S1768   1.804       .  S
C1764      C1765   1.410   1_565  A
C1764      H1769   1.083       .  S
C1765      C1766   1.419       .  A
C1766      S1770   1.807       .  S
C1767      C1772   1.409       .  A
C1767      C1776   1.404   1_545  A
S1768      H1784   1.406       .  S
S1770      H1781   1.407       .  S
C1772      C1773   1.406       .  A
C1772      S1777   1.807       .  S
C1773      C1774   1.411   1_545  A
C1773      H1778   1.081       .  S
C1774      C1775   1.416       .  A
C1775      C1776   1.404       .  A
C1775      S1779   1.801       .  S
C1776      H1780   1.084       .  S
S1777      H1782   1.407       .  S
S1779      H1783   1.408       .  S
C1785      C1786   1.401       .  A
C1785      C1790   1.403       .  A
C1785      H1795   1.084       .  S
C1786      C1791   1.490   1_565  S
C1786      C1787   1.413       .  A
C1787      C1788   1.403       .  A
C1787      S1792   1.805       .  S
C1788      C1789   1.410       .  A
C1788      H1793   1.083       .  S
C1789      C1790   1.424       .  A
C1790      S1794   1.803       .  S
C1791      C1796   1.413       .  A
C1791      C1800   1.403   1_545  A
S1792      H1808   1.406       .  S
S1794      H1805   1.407       .  S
C1796      C1797   1.408       .  A
C1796      S1801   1.807       .  S
C1797      C1798   1.406       .  A
C1797      H1802   1.082       .  S
C1798      C1799   1.416   1_545  A
C1799      C1800   1.402       .  A
C1799      S1803   1.803       .  S
C1800      H1804   1.084       .  S
S1801      H1806   1.407       .  S
S1803      H1807   1.407       .  S
C1809      C1810   1.404       .  A
C1809      C1814   1.405       .  A
C1809      H1819   1.083       .  S
C1810      C1815   1.491       .  S
C1810      C1811   1.414   1_655  A
C1811      C1812   1.403       .  A
C1811      S1816   1.804       .  S
C1812      C1813   1.404   1_455  A
C1812      H1817   1.083       .  S
C1813      C1814   1.415       .  A
C1814      S1818   1.803       .  S
C1815      C1820   1.412   1_655  A
C1815      C1824   1.404       .  A
S1816      H1832   1.406       .  S
S1818      H1829   1.406       .  S
C1820      C1821   1.406       .  A
C1820      S1825   1.807       .  S
C1821      C1822   1.405   1_455  A
C1821      H1826   1.083       .  S
C1822      C1823   1.415       .  A
C1823      C1824   1.404       .  A
C1823      S1827   1.803       .  S
C1824      H1828   1.084       .  S
S1825      H1830   1.407       .  S
S1827      H1831   1.407       .  S
C1833      C1834   1.398       .  A
C1833      C1838   1.401       .  A
C1833      H1843   1.083       .  S
C1834      C1839   1.488       .  S
C1834      C1835   1.417       .  A
C1835      C1836   1.407       .  A
C1835      S1840   1.804       .  S
C1836      C1837   1.403       .  A
C1836      H1841   1.084       .  S
C1837      C1838   1.420       .  A
C1838      S1842   1.811       .  S
C1839      C1844   1.413       .  A
C1839      C1848   1.402       .  A
S1840      H1856   1.406       .  S
S1842      H1853   1.407       .  S
C1844      C1845   1.406       .  A
C1844      S1849   1.807       .  S
C1845      C1846   1.405       .  A
C1845      H1850   1.083       .  S
C1846      C1847   1.416       .  A
C1847      C1848   1.401       .  A
C1847      S1851   1.804       .  S
C1848      H1852   1.084       .  S
S1849      H1854   1.407       .  S
S1851      H1855   1.407       .  S
C1857      C1858   1.408       .  A
C1857      C1862   1.405       .  A
C1857      H1867   1.084       .  S
C1858      C1863   1.489       .  S
C1858      C1859   1.413       .  A
C1859      C1860   1.399       .  A
C1859      S1864   1.806       .  S
C1860      C1861   1.407       .  A
C1860      H1865   1.084       .  S
C1861      C1862   1.411       .  A
C1862      S1866   1.802       .  S
C1863      C1868   1.412       .  A
C1863      C1872   1.403       .  A
S1864      H1880   1.405       .  S
S1866      H1877   1.407       .  S
C1868      C1869   1.404       .  A
C1868      S1873   1.805       .  S
C1869      C1870   1.406       .  A
C1869      H1874   1.081       .  S
C1870      C1871   1.416       .  A
C1871      C1872   1.402       .  A
C1871      S1875   1.805       .  S
C1872      H1876   1.084       .  S
S1873      H1878   1.406       .  S
S1875      H1879   1.407       .  S
C1881      C1882   1.402   1_455  A
C1881      C1886   1.400       .  A
C1881      H1891   1.084       .  S
C1882      C1887   1.488       .  S
C1882      C1883   1.414       .  A
C1883      C1884   1.404       .  A
C1883      S1888   1.803       .  S
C1884      C1885   1.405       .  A
C1884      H1889   1.084       .  S
C1885      C1886   1.417   1_655  A
C1886      S1890   1.803       .  S
C1887      C1892   1.411   1_655  A
C1887      C1896   1.404       .  A
S1888      H1904   1.406       .  S
S1890      H1901   1.407       .  S
C1892      C1893   1.404       .  A
C1892      S1897   1.807       .  S
C1893      C1894   1.406   1_455  A
C1893      H1898   1.083       .  S
C1894      C1895   1.415       .  A
C1895      C1896   1.403       .  A
C1895      S1899   1.803       .  S
C1896      H1900   1.084       .  S
S1897      H1902   1.407       .  S
S1899      H1903   1.408       .  S
C1905      C1906   1.411       .  A
C1905      C1910   1.406       .  A
C1905      H1915   1.084       .  S
C1906      C1911   1.491       .  S
C1906      C1907   1.411       .  A
C1907      C1908   1.396       .  A
C1907      S1912   1.804       .  S
C1908      C1909   1.405       .  A
C1908      H1913   1.084       .  S
C1909      C1910   1.410       .  A
C1910      S1914   1.803       .  S
C1911      C1916   1.411       .  A
C1911      C1920   1.406       .  A
S1912      H1928   1.407       .  S
S1914      H1925   1.406       .  S
C1916      C1917   1.403       .  A
C1916      S1921   1.806       .  S
C1917      C1918   1.405       .  A
C1917      H1922   1.081       .  S
C1918      C1919   1.410       .  A
C1919      C1920   1.400       .  A
C1919      S1923   1.802       .  S
C1920      H1924   1.083       .  S
S1921      H1926   1.407       .  S
S1923      H1927   1.406       .  S
C1929      C1930   1.403   1_655  A
C1929      C1934   1.399   1_556  A
C1929      H1939   1.084       .  S
C1930      C1935   1.479       .  S
C1930      C1931   1.411   1_556  A
C1931      C1932   1.400       .  A
C1931      S1936   1.805   1_554  S
C1932      C1933   1.406       .  A
C1932      H1937   1.083       .  S
C1933      C1934   1.415   1_455  A
C1934      S1938   1.803       .  S
C1935      C1940   1.407       .  A
C1935      C1944   1.400       .  A
S1936      H1952   1.404       .  S
S1938      H1949   1.408       .  S
C1940      C1941   1.400       .  A
C1940      S1945   1.808   1_455  S
C1941      C1942   1.407       .  A
C1941      H1946   1.082   1_455  S
C1942      C1943   1.419       .  A
C1943      C1944   1.405       .  A
C1943      S1947   1.808       .  S
C1944      H1948   1.082       .  S
S1945      H1950   1.407       .  S
S1947      H1951   1.407       .  S
C1953      C1954   1.401       .  A
C1953      C1958   1.397       .  A
C1953      H1963   1.084       .  S
C1954      C1959   1.493       .  S
C1954      C1955   1.419       .  A
C1955      C1956   1.406       .  A
C1955      S1960   1.804       .  S
C1956      C1957   1.402       .  A
C1956      H1961   1.084       .  S
C1957      C1958   1.417       .  A
C1958      S1962   1.803       .  S
C1959      C1964   1.417       .  A
C1959      C1968   1.399   1_455  A
S1960      H1976   1.407       .  S
S1962      H1973   1.402   1_455  S
C1964      C1965   1.412       .  A
C1964      S1969   1.806       .  S
C1965      C1966   1.404       .  A
C1965      H1970   1.083       .  S
C1966      C1967   1.417   1_455  A
C1967      C1968   1.393       .  A
C1967      S1971   1.804       .  S
C1968      H1972   1.084       .  S
S1969      H1974   1.407       .  S
S1971      H1975   1.395       .  S
C1977      C1978   1.409       .  A
C1977      C1982   1.408       .  A
C1977      H1987   1.084       .  S
C1978      C1983   1.493       .  S
C1978      C1979   1.412       .  A
C1979      C1980   1.393       .  A
C1979      S1984   1.807       .  S
C1980      C1981   1.413       .  A
C1980      H1985   1.084       .  S
C1981      C1982   1.415       .  A
C1982      S1986   1.798   1_554  S
C1983      C1988   1.417       .  A
C1983      C1992   1.403       .  A
S1984      H2000   1.407       .  S
S1986      H1997   1.407   1_556  S
C1988      C1989   1.409       .  A
C1988      S1993   1.807       .  S
C1989      C1990   1.403       .  A
C1989      H1994   1.083       .  S
C1990      C1991   1.411       .  A
C1991      C1992   1.395       .  A
C1991      S1995   1.801       .  S
C1992      H1996   1.084       .  S
S1993      H1998   1.407       .  S
S1995      H1999   1.405       .  S
C2001      C2002   1.404   1_655  A
C2001      C2006   1.401       .  A
C2001      H2011   1.084       .  S
C2002      C2007   1.496       .  S
C2002      C2003   1.415       .  A
C2003      C2004   1.405       .  A
C2003      S2008   1.804       .  S
C2004      C2005   1.408       .  A
C2004      H2009   1.083       .  S
C2005      C2006   1.419   1_455  A
C2006      S2010   1.801       .  S
C2007      C2012   1.415       .  A
C2007      C2016   1.407       .  A
S2008      H2024   1.407       .  S
S2010      H2021   1.408       .  S
C2012      C2013   1.405       .  A
C2012      S2017   1.808   1_455  S
C2013      C2014   1.403       .  A
C2013      H2018   1.083   1_455  S
C2014      C2015   1.412       .  A
C2015      C2016   1.403       .  A
C2015      S2019   1.803       .  S
C2016      H2020   1.084       .  S
S2017      H2022   1.407       .  S
S2019      H2023   1.406       .  S
C2025      C2026   1.407       .  A
C2025      C2030   1.406       .  A
C2025      H2035   1.084       .  S
C2026      C2031   1.492       .  S
C2026      C2027   1.413       .  A
C2027      C2028   1.401       .  A
C2027      S2032   1.804       .  S
C2028      C2029   1.406       .  A
C2028      H2033   1.084       .  S
C2029      C2030   1.414       .  A
C2030      S2034   1.800       .  S
C2031      C2036   1.411       .  A
C2031      C2040   1.405       .  A
S2032      H2048   1.406       .  S
S2034      H2045   1.406       .  S
C2036      C2037   1.406       .  A
C2036      S2041   1.806       .  S
C2037      C2038   1.407       .  A
C2037      H2042   1.083       .  S
C2038      C2039   1.416       .  A
C2039      C2040   1.403       .  A
C2039      S2043   1.802       .  S
C2040      H2044   1.084       .  S
S2041      H2046   1.407       .  S
S2043      H2047   1.407       .  S
C2049      C2050   1.404   1_655  A
C2049      C2054   1.401       .  A
C2049      H2059   1.083       .  S
C2050      C2055   1.500       .  S
C2050      C2051   1.417       .  A
C2051      C2052   1.405       .  A
C2051      S2056   1.804       .  S
C2052      C2053   1.407       .  A
C2052      H2057   1.084       .  S
C2053      C2054   1.421   1_455  A
C2054      S2058   1.803       .  S
C2055      C2060   1.417   1_455  A
C2055      C2064   1.408       .  A
S2056      H2072   1.407       .  S
S2058      H2069   1.398       .  S
C2060      C2061   1.406       .  A
C2060      S2065   1.809       .  S
C2061      C2062   1.403   1_655  A
C2061      H2066   1.082       .  S
C2062      C2063   1.411       .  A
C2063      C2064   1.403       .  A
C2063      S2067   1.803       .  S
C2064      H2068   1.083       .  S
S2065      H2070   1.407       .  S
S2067      H2071   1.406       .  S
C2073      C2074   1.403       .  A
C2073      C2078   1.401       .  A
C2073      H2083   1.084       .  S
C2074      C2079   1.484       .  S
C2074      C2075   1.412       .  A
C2075      C2076   1.399       .  A
C2075      S2080   1.804       .  S
C2076      C2077   1.405       .  A
C2076      H2081   1.084       .  S
C2077      C2078   1.416       .  A
C2078      S2082   1.798       .  S
C2079      C2084   1.411       .  A
C2079      C2088   1.402       .  A
S2080      H2096   1.406       .  S
S2082      H2093   1.405       .  S
C2084      C2085   1.405       .  A
C2084      S2089   1.806       .  S
C2085      C2086   1.405       .  A
C2085      H2090   1.084       .  S
C2086      C2087   1.414       .  A
C2087      C2088   1.399       .  A
C2087      S2091   1.803       .  S
C2088      H2092   1.084       .  S
S2089      H2094   1.407       .  S
S2091      H2095   1.407       .  S
C2097      C2098   1.397   1_455  A
C2097      C2102   1.391       .  A
C2097      H2107   1.085       .  S
C2098      C2103   1.479       .  S
C2098      C2099   1.414       .  A
C2099      C2100   1.404       .  A
C2099      S2104   1.803       .  S
C2100      C2101   1.405       .  A
C2100      H2105   1.084       .  S
C2101      C2102   1.417   1_655  A
C2102      S2106   1.800       .  S
C2103      C2108   1.411   1_655  A
C2103      C2112   1.400       .  A
S2104      H2120   1.405       .  S
S2106      H2117   1.403       .  S
C2108      C2109   1.400       .  A
C2108      S2113   1.807       .  S
C2109      C2110   1.404   1_455  A
C2109      H2114   1.083       .  S
C2110      C2111   1.418       .  A
C2111      C2112   1.400       .  A
C2111      S2115   1.803       .  S
C2112      H2116   1.084       .  S
S2113      H2118   1.406       .  S
S2115      H2119   1.407       .  S
C2121      C2122   1.397       .  A
C2121      C2126   1.396       .  A
C2121      H2131   1.084       .  S
C2122      C2127   1.485       .  S
C2122      C2123   1.415       .  A
C2123      C2124   1.403       .  A
C2123      S2128   1.803       .  S
C2124      C2125   1.407       .  A
C2124      H2129   1.084       .  S
C2125      C2126   1.421       .  A
C2126      S2130   1.794   1_655  S
C2127      C2132   1.414   1_655  A
C2127      C2136   1.399       .  A
S2128      H2144   1.406       .  S
S2130      H2141   1.406       .  S
C2132      C2133   1.403   1_554  A
C2132      S2137   1.806       .  S
C2133      C2134   1.405       .  A
C2133      H2138   1.082       .  S
C2134      C2135   1.420   1_455  A
C2135      C2136   1.397   1_556  A
C2135      S2139   1.803       .  S
C2136      H2140   1.084       .  S
S2137      H2142   1.407       .  S
S2139      H2143   1.408       .  S
C2145      C2146   1.402       .  A
C2145      C2150   1.398       .  A
C2145      H2155   1.084       .  S
C2146      C2151   1.480       .  S
C2146      C2147   1.411       .  A
C2147      C2148   1.398       .  A
C2147      S2152   1.804       .  S
C2148      C2149   1.407       .  A
C2148      H2153   1.084       .  S
C2149      C2150   1.417       .  A
C2150      S2154   1.802       .  S
C2151      C2156   1.407       .  A
C2151      C2160   1.401       .  A
S2152      H2168   1.406       .  S
S2154      H2165   1.407       .  S
C2156      C2157   1.400       .  A
C2156      S2161   1.807       .  S
C2157      C2158   1.407       .  A
C2157      H2162   1.082       .  S
C2158      C2159   1.421       .  A
C2159      C2160   1.403       .  A
C2159      S2163   1.810       .  S
C2160      H2164   1.083       .  S
S2161      H2166   1.407       .  S
S2163      H2167   1.407       .  S
C2169      C2170   1.405       .  A
C2169      C2174   1.403       .  A
C2169      H2179   1.084       .  S
C2170      C2175   1.485       .  S
C2170      C2171   1.410       .  A
C2171      C2172   1.398       .  A
C2171      S2176   1.805       .  S
C2172      C2173   1.410       .  A
C2172      H2177   1.085       .  S
C2173      C2174   1.414       .  A
C2174      S2178   1.797       .  S
C2175      C2180   1.416       .  A
C2175      C2184   1.397       .  A
S2176      H2192   1.405       .  S
S2178      H2189   1.407       .  S
C2180      C2181   1.408       .  A
C2180      S2185   1.806       .  S
C2181      C2182   1.401       .  A
C2181      H2186   1.083       .  S
C2182      C2183   1.418       .  A
C2183      C2184   1.400       .  A
C2183      S2187   1.809       .  S
C2184      H2188   1.083       .  S
S2185      H2190   1.407       .  S
S2187      H2191   1.407       .  S
C2193      C2194   1.394       .  A
C2193      C2198   1.394       .  A
C2193      H2203   1.084       .  S
C2194      C2199   1.495       .  S
C2194      C2195   1.420       .  A
C2195      C2196   1.414       .  A
C2195      S2200   1.803       .  S
C2196      C2197   1.407       .  A
C2196      H2201   1.083       .  S
C2197      C2198   1.428       .  A
C2198      S2202   1.813       .  S
C2199      C2204   1.409       .  A
C2199      C2208   1.405       .  A
S2200      H2216   1.405       .  S
S2202      H2213   1.407       .  S
C2204      C2205   1.407       .  A
C2204      S2209   1.807       .  S
C2205      C2206   1.412       .  A
C2205      H2210   1.082       .  S
C2206      C2207   1.422       .  A
C2207      C2208   1.407       .  A
C2207      S2211   1.810       .  S
C2208      H2212   1.083       .  S
S2209      H2214   1.405       .  S
S2211      H2215   1.406       .  S
C2217      C2218   1.403       .  A
C2217      C2222   1.402       .  A
C2217      H2227   1.084       .  S
C2218      C2223   1.491       .  S
C2218      C2219   1.414       .  A
C2219      C2220   1.404       .  A
C2219      S2224   1.804       .  S
C2220      C2221   1.407       .  A
C2220      H2225   1.084       .  S
C2221      C2222   1.418       .  A
C2222      S2226   1.802       .  S
C2223      C2228   1.410       .  A
C2223      C2232   1.402       .  A
S2224      H2240   1.406       .  S
S2226      H2237   1.406       .  S
C2228      C2229   1.406       .  A
C2228      S2233   1.807       .  S
C2229      C2230   1.411       .  A
C2229      H2234   1.082       .  S
C2230      C2231   1.421       .  A
C2231      C2232   1.403       .  A
C2231      S2235   1.801       .  S
C2232      H2236   1.084       .  S
S2233      H2238   1.407       .  S
S2235      H2239   1.408       .  S
C2241      C2242   1.401       .  A
C2241      C2246   1.396       .  A
C2241      H2251   1.082       .  S
C2242      C2247   1.491       .  S
C2242      C2243   1.418       .  A
C2243      C2244   1.404       .  A
C2243      S2248   1.803       .  S
C2244      C2245   1.405       .  A
C2244      H2249   1.083       .  S
C2245      C2246   1.416       .  A
C2246      S2250   1.806       .  S
C2247      C2252   1.414       .  A
C2247      C2256   1.409       .  A
S2248      H2264   1.406       .  S
S2250      H2261   1.407       .  S
C2252      C2253   1.397       .  A
C2252      S2257   1.808       .  S
C2253      C2254   1.401       .  A
C2253      H2258   1.084       .  S
C2254      C2255   1.410       .  A
C2255      C2256   1.403       .  A
C2255      S2259   1.805       .  S
C2256      H2260   1.083       .  S
S2257      H2262   1.407       .  S
S2259      H2263   1.402       .  S
C2265      C2266   1.399       .  A
C2265      C2270   1.399       .  A
C2265      H2275   1.084   1_545  S
C2266      C2271   1.492       .  S
C2266      C2267   1.418       .  A
C2267      C2268   1.407       .  A
C2267      S2272   1.803       .  S
C2268      C2269   1.403       .  A
C2268      H2273   1.084       .  S
C2269      C2270   1.420       .  A
C2270      S2274   1.808   1_545  S
C2271      C2276   1.415       .  A
C2271      C2280   1.400       .  A
S2272      H2288   1.406       .  S
S2274      H2285   1.393       .  S
C2276      C2277   1.412       .  A
C2276      S2281   1.806       .  S
C2277      C2278   1.405       .  A
C2277      H2282   1.083       .  S
C2278      C2279   1.417       .  A
C2279      C2280   1.399       .  A
C2279      S2283   1.802   1_545  S
C2280      H2284   1.084       .  S
S2281      H2286   1.407       .  S
S2283      H2287   1.401   1_565  S
C2289      C2290   1.400   1_565  A
C2289      C2294   1.399       .  A
C2289      H2299   1.085       .  S
C2290      C2295   1.485       .  S
C2290      C2291   1.411       .  A
C2291      C2292   1.404       .  A
C2291      S2296   1.803       .  S
C2292      C2293   1.409       .  A
C2292      H2297   1.084       .  S
C2293      C2294   1.421   1_545  A
C2294      S2298   1.803       .  S
C2295      C2300   1.408       .  A
C2295      C2304   1.401       .  A
S2296      H2312   1.405       .  S
S2298      H2309   1.408       .  S
C2300      C2301   1.403       .  A
C2300      S2305   1.808       .  S
C2301      C2302   1.409       .  A
C2301      H2306   1.082       .  S
C2302      C2303   1.421       .  A
C2303      C2304   1.403       .  A
C2303      S2307   1.802       .  S
C2304      H2308   1.084       .  S
S2305      H2310   1.407       .  S
S2307      H2311   1.408       .  S
C2313      C2314   1.405       .  A
C2313      C2318   1.398   1_556  A
C2313      H2323   1.083   1_556  S
C2314      C2319   1.490       .  S
C2314      C2315   1.415       .  A
C2315      C2316   1.401       .  A
C2315      S2320   1.804       .  S
C2316      C2317   1.403       .  A
C2316      H2321   1.084       .  S
C2317      C2318   1.409   1_556  A
C2318      S2322   1.803       .  S
C2319      C2324   1.409       .  A
C2319      C2328   1.409       .  A
S2320      H2336   1.407       .  S
S2322      H2333   1.406       .  S
C2324      C2325   1.402       .  A
C2324      S2329   1.808       .  S
C2325      C2326   1.408       .  A
C2325      H2330   1.083       .  S
C2326      C2327   1.410       .  A
C2327      C2328   1.403       .  A
C2327      S2331   1.802       .  S
C2328      H2332   1.084       .  S
S2329      H2334   1.406       .  S
S2331      H2335   1.407       .  S
C2337      C2338   1.402       .  A
C2337      C2342   1.401       .  A
C2337      H2347   1.084       .  S
C2338      C2343   1.478       .  S
C2338      C2339   1.410       .  A
C2339      C2340   1.399       .  A
C2339      S2344   1.806       .  S
C2340      C2341   1.407       .  A
C2340      H2345   1.084       .  S
C2341      C2342   1.417       .  A
C2342      S2346   1.804       .  S
C2343      C2348   1.407       .  A
C2343      C2352   1.401       .  A
S2344      H2360   1.404   1_545  S
S2346      H2357   1.404       .  S
C2348      C2349   1.401       .  A
C2348      S2353   1.807   1_545  S
C2349      C2350   1.407       .  A
C2349      H2354   1.083       .  S
C2350      C2351   1.417       .  A
C2351      C2352   1.401       .  A
C2351      S2355   1.804       .  S
C2352      H2356   1.084       .  S
S2353      H2358   1.407       .  S
S2355      H2359   1.407       .  S
C2361      C2362   1.407   1_556  A
C2361      C2366   1.407   1_556  A
C2361      H2371   1.084       .  S
C2362      C2367   1.496   1_554  S
C2362      C2363   1.414       .  A
C2363      C2364   1.403       .  A
C2363      S2368   1.804   1_545  S
C2364      C2365   1.407       .  A
C2364      H2369   1.084       .  S
C2365      C2366   1.417       .  A
C2366      S2370   1.803   1_554  S
C2367      C2372   1.412       .  A
C2367      C2376   1.405   1_556  A
S2368      H2384   1.406       .  S
S2370      H2381   1.408       .  S
C2372      C2373   1.408       .  A
C2372      S2377   1.807       .  S
C2373      C2374   1.407       .  A
C2373      H2378   1.083       .  S
C2374      C2375   1.416   1_556  A
C2375      C2376   1.405       .  A
C2375      S2379   1.800       .  S
C2376      H2380   1.084       .  S
S2377      H2382   1.407       .  S
S2379      H2383   1.407       .  S
C2385      C2386   1.400   1_565  A
C2385      C2390   1.399       .  A
C2385      H2395   1.084       .  S
C2386      C2391   1.478       .  S
C2386      C2387   1.412       .  A
C2387      C2388   1.396       .  A
C2387      S2392   1.802       .  S
C2388      C2389   1.404       .  A
C2388      H2393   1.084       .  S
C2389      C2390   1.418   1_545  A
C2390      S2394   1.803       .  S
C2391      C2396   1.407       .  A
C2391      C2400   1.399   1_545  A
S2392      H2408   1.406       .  S
S2394      H2405   1.408       .  S
C2396      C2397   1.401       .  A
C2396      S2401   1.807       .  S
C2397      C2398   1.408       .  A
C2397      H2402   1.082       .  S
C2398      C2399   1.421   1_545  A
C2399      C2400   1.402       .  A
C2399      S2403   1.810       .  S
C2400      H2404   1.082       .  S
S2401      H2406   1.406       .  S
S2403      H2407   1.407       .  S
C2409      C2410   1.398       .  A
C2409      C2414   1.404       .  A
C2409      H2419   1.082       .  S
C2410      C2415   1.478       .  S
C2410      C2411   1.409       .  A
C2411      C2412   1.398       .  A
C2411      S2416   1.805       .  S
C2412      C2413   1.410       .  A
C2412      H2417   1.083       .  S
C2413      C2414   1.424       .  A
C2414      S2418   1.812   1_545  S
C2415      C2420   1.408       .  A
C2415      C2424   1.400   1_545  A
S2416      H2432   1.405   1_545  S
S2418      H2429   1.407   1_565  S
C2420      C2421   1.402       .  A
C2420      S2425   1.807       .  S
C2421      C2422   1.405       .  A
C2421      H2426   1.083       .  S
C2422      C2423   1.416   1_545  A
C2423      C2424   1.403       .  A
C2423      S2427   1.809       .  S
C2424      H2428   1.083       .  S
S2425      H2430   1.407       .  S
S2427      H2431   1.407       .  S
C2433      C2434   1.403       .  A
C2433      C2438   1.401       .  A
C2433      H2443   1.084       .  S
C2434      C2439   1.483       .  S
C2434      C2435   1.413       .  A
C2435      C2436   1.401       .  A
C2435      S2440   1.805       .  S
C2436      C2437   1.405       .  A
C2436      H2441   1.084       .  S
C2437      C2438   1.415       .  A
C2438      S2442   1.803       .  S
C2439      C2444   1.409       .  A
C2439      C2448   1.399       .  A
S2440      H2456   1.405       .  S
S2442      H2453   1.407       .  S
C2444      C2445   1.408       .  A
C2444      S2449   1.806       .  S
C2445      C2446   1.408       .  A
C2445      H2450   1.082       .  S
C2446      C2447   1.419       .  A
C2447      C2448   1.398       .  A
C2447      S2451   1.803       .  S
C2448      H2452   1.084       .  S
S2449      H2454   1.407       .  S
S2451      H2455   1.407       .  S
C2457      C2458   1.402       .  A
C2457      C2462   1.400       .  A
C2457      H2467   1.084       .  S
C2458      C2463   1.482       .  S
C2458      C2459   1.415       .  A
C2459      C2460   1.400   1_556  A
C2459      S2464   1.807   1_556  S
C2460      C2461   1.405   1_554  A
C2460      H2465   1.084       .  S
C2461      C2462   1.412       .  A
C2462      S2466   1.801       .  S
C2463      C2468   1.405       .  A
C2463      C2472   1.406       .  A
S2464      H2480   1.405       .  S
S2466      H2477   1.407       .  S
C2468      C2469   1.399       .  A
C2468      S2473   1.807       .  S
C2469      C2470   1.409       .  A
C2469      H2474   1.083       .  S
C2470      C2471   1.412       .  A
C2471      C2472   1.404       .  A
C2471      S2475   1.801       .  S
C2472      H2476   1.084       .  S
S2473      H2478   1.407       .  S
S2475      H2479   1.404       .  S
C2481      C2482   1.406       .  A
C2481      C2486   1.405       .  A
C2481      H2491   1.084       .  S
C2482      C2487   1.487       .  S
C2482      C2483   1.412       .  A
C2483      C2484   1.396       .  A
C2483      S2488   1.806       .  S
C2484      C2485   1.404       .  A
C2484      H2489   1.083       .  S
C2485      C2486   1.415       .  A
C2486      S2490   1.803       .  S
C2487      C2492   1.408       .  A
C2487      C2496   1.406       .  A
S2488      H2504   1.406       .  S
S2490      H2501   1.405       .  S
C2492      C2493   1.396       .  A
C2492      S2497   1.811       .  S
C2493      C2494   1.412       .  A
C2493      H2498   1.082       .  S
C2494      C2495   1.419       .  A
C2495      C2496   1.408       .  A
C2495      S2499   1.800       .  S
C2496      H2500   1.084       .  S
S2497      H2502   1.407       .  S
S2499      H2503   1.407       .  S
C2505      C2506   1.401       .  A
C2505      C2510   1.398       .  A
C2505      H2515   1.084       .  S
C2506      C2511   1.477       .  S
C2506      C2507   1.411       .  A
C2507      C2508   1.399       .  A
C2507      S2512   1.806       .  S
C2508      C2509   1.408       .  A
C2508      H2513   1.084       .  S
C2509      C2510   1.417       .  A
C2510      S2514   1.803       .  S
C2511      C2516   1.410       .  A
C2511      C2520   1.401       .  A
S2512      H2528   1.405       .  S
S2514      H2525   1.407       .  S
C2516      C2517   1.404       .  A
C2516      S2521   1.806       .  S
C2517      C2518   1.404       .  A
C2517      H2522   1.083       .  S
C2518      C2519   1.413       .  A
C2519      C2520   1.396       .  A
C2519      S2523   1.804       .  S
C2520      H2524   1.084       .  S
S2521      H2526   1.407       .  S
S2523      H2527   1.406       .  S
C2529      C2530   1.398       .  A
C2529      C2534   1.396       .  A
C2529      H2539   1.084       .  S
C2530      C2535   1.482       .  S
C2530      C2531   1.418       .  A
C2531      C2532   1.402       .  A
C2531      S2536   1.804       .  S
C2532      C2533   1.400       .  A
C2532      H2537   1.084       .  S
C2533      C2534   1.417       .  A
C2534      S2538   1.800       .  S
C2535      C2540   1.408       .  A
C2535      C2544   1.404       .  A
S2536      H2552   1.406       .  S
S2538      H2549   1.406       .  S
C2540      C2541   1.396       .  A
C2540      S2545   1.804       .  S
C2541      C2542   1.406       .  A
C2541      H2546   1.083       .  S
C2542      C2543   1.416       .  A
C2543      C2544   1.406       .  A
C2543      S2547   1.808       .  S
C2544      H2548   1.082       .  S
S2545      H2550   1.407       .  S
S2547      H2551   1.406       .  S
C2553      C2554   1.402       .  A
C2553      C2558   1.402       .  A
C2553      H2563   1.084       .  S
C2554      C2559   1.482       .  S
C2554      C2555   1.409       .  A
C2555      C2556   1.399       .  A
C2555      S2560   1.805       .  S
C2556      C2557   1.412       .  A
C2556      H2561   1.083       .  S
C2557      C2558   1.420       .  A
C2558      S2562   1.800       .  S
C2559      C2564   1.409       .  A
C2559      C2568   1.398       .  A
S2560      H2576   1.405       .  S
S2562      H2573   1.408       .  S
C2564      C2565   1.405       .  A
C2564      S2569   1.807       .  S
C2565      C2566   1.410       .  A
C2565      H2570   1.082       .  S
C2566      C2567   1.424       .  A
C2567      C2568   1.399       .  A
C2567      S2571   1.803       .  S
C2568      H2572   1.084       .  S
S2569      H2574   1.407       .  S
S2571      H2575   1.408       .  S
C2577      C2578   1.404       .  A
C2577      C2582   1.404       .  A
C2577      H2587   1.084       .  S
C2578      C2583   1.482       .  S
C2578      C2579   1.409       .  A
C2579      C2580   1.398       .  A
C2579      S2584   1.805       .  S
C2580      C2581   1.409       .  A
C2580      H2585   1.084       .  S
C2581      C2582   1.417       .  A
C2582      S2586   1.802       .  S
C2583      C2588   1.409       .  A
C2583      C2592   1.401       .  A
S2584      H2600   1.404       .  S
S2586      H2597   1.408       .  S
C2588      C2589   1.403   1_554  A
C2588      S2593   1.803       .  S
C2589      C2590   1.405       .  A
C2589      H2594   1.083       .  S
C2590      C2591   1.415       .  A
C2591      C2592   1.401   1_556  A
C2591      S2595   1.803       .  S
C2592      H2596   1.084       .  S
S2593      H2598   1.407       .  S
S2595      H2599   1.407       .  S
C2601      C2602   1.405       .  A
C2601      C2606   1.406       .  A
C2601      H2611   1.083       .  S
C2602      C2607   1.493       .  S
C2602      C2603   1.415       .  A
C2603      C2604   1.401       .  A
C2603      S2608   1.799       .  S
C2604      C2605   1.402       .  A
C2604      H2609   1.084       .  S
C2605      C2606   1.410       .  A
C2606      S2610   1.803       .  S
C2607      C2612   1.415       .  A
C2607      C2616   1.398       .  A
S2608      H2624   1.406       .  S
S2610      H2621   1.406       .  S
C2612      C2613   1.411       .  A
C2612      S2617   1.806       .  S
C2613      C2614   1.406       .  A
C2613      H2618   1.082       .  S
C2614      C2615   1.423       .  A
C2615      C2616   1.398       .  A
C2615      S2619   1.802       .  S
C2616      H2620   1.084       .  S
S2617      H2622   1.406       .  S
S2619      H2623   1.404       .  S
C2625      C2626   1.406       .  A
C2625      C2630   1.403       .  A
C2625      H2635   1.083       .  S
C2626      C2631   1.488       .  S
C2626      C2627   1.414       .  A
C2627      C2628   1.399       .  A
C2627      S2632   1.804       .  S
C2628      C2629   1.402       .  A
C2628      H2633   1.084       .  S
C2629      C2630   1.413       .  A
C2630      S2634   1.803       .  S
C2631      C2636   1.411       .  A
C2631      C2640   1.401       .  A
S2632      H2648   1.407       .  S
S2634      H2645   1.406       .  S
C2636      C2637   1.409       .  A
C2636      S2641   1.806       .  S
C2637      C2638   1.408       .  A
C2637      H2642   1.082       .  S
C2638      C2639   1.416       .  A
C2639      C2640   1.396       .  A
C2639      S2643   1.797       .  S
C2640      H2644   1.084       .  S
S2641      H2646   1.407       .  S
S2643      H2647   1.400       .  S
C2649      C2650   1.403       .  A
C2649      C2654   1.399       .  A
C2649      H2659   1.084       .  S
C2650      C2655   1.483       .  S
C2650      C2651   1.413       .  A
C2651      C2652   1.401       .  A
C2651      S2656   1.804       .  S
C2652      C2653   1.404       .  A
C2652      H2657   1.084       .  S
C2653      C2654   1.413       .  A
C2654      S2658   1.805       .  S
C2655      C2660   1.409       .  A
C2655      C2664   1.403       .  A
S2656      H2672   1.406       .  S
S2658      H2669   1.405       .  S
C2660      C2661   1.402       .  A
C2660      S2665   1.807       .  S
C2661      C2662   1.405       .  A
C2661      H2666   1.083       .  S
C2662      C2663   1.415       .  A
C2663      C2664   1.401       .  A
C2663      S2667   1.803       .  S
C2664      H2668   1.084       .  S
S2665      H2670   1.407       .  S
S2667      H2671   1.408   1_565  S
C2673      C2674   1.404       .  A
C2673      C2678   1.405       .  A
C2673      H2683   1.084       .  S
C2674      C2679   1.493       .  S
C2674      C2675   1.414       .  A
C2675      C2676   1.403       .  A
C2675      S2680   1.804       .  S
C2676      C2677   1.406       .  A
C2676      H2681   1.084       .  S
C2677      C2678   1.420       .  A
C2678      S2682   1.803       .  S
C2679      C2684   1.412       .  A
C2679      C2688   1.403       .  A
S2680      H2696   1.406       .  S
S2682      H2693   1.407       .  S
C2684      C2685   1.409       .  A
C2684      S2689   1.806       .  S
C2685      C2686   1.406       .  A
C2685      H2690   1.083       .  S
C2686      C2687   1.417       .  A
C2687      C2688   1.403       .  A
C2687      S2691   1.803       .  S
C2688      H2692   1.084       .  S
S2689      H2694   1.407       .  S
S2691      H2695   1.407       .  S
C2697      C2698   1.400       .  A
C2697      C2702   1.400       .  A
C2697      H2707   1.084       .  S
C2698      C2703   1.481       .  S
C2698      C2699   1.412       .  A
C2699      C2700   1.400       .  A
C2699      S2704   1.805       .  S
C2700      C2701   1.406       .  A
C2700      H2705   1.084       .  S
C2701      C2702   1.419       .  A
C2702      S2706   1.803       .  S
C2703      C2708   1.407       .  A
C2703      C2712   1.402       .  A
S2704      H2720   1.405       .  S
S2706      H2717   1.408       .  S
C2708      C2709   1.400       .  A
C2708      S2713   1.807       .  S
C2709      C2710   1.407       .  A
C2709      H2714   1.082       .  S
C2710      C2711   1.418       .  A
C2711      C2712   1.406       .  A
C2711      S2715   1.808       .  S
C2712      H2716   1.083       .  S
S2713      H2718   1.407       .  S
S2715      H2719   1.407       .  S
C2721      C2722   1.402       .  A
C2721      C2726   1.401       .  A
C2721      H2731   1.084       .  S
C2722      C2727   1.486       .  S
C2722      C2723   1.415       .  A
C2723      C2724   1.399       .  A
C2723      S2728   1.804       .  S
C2724      C2725   1.405       .  A
C2724      H2729   1.084       .  S
C2725      C2726   1.417       .  A
C2726      S2730   1.803       .  S
C2727      C2732   1.413       .  A
C2727      C2736   1.397       .  A
S2728      H2744   1.406       .  S
S2730      H2741   1.407       .  S
C2732      C2733   1.411   1_556  A
C2732      S2737   1.806       .  S
C2733      C2734   1.406       .  A
C2733      H2738   1.082       .  S
C2734      C2735   1.419       .  A
C2735      C2736   1.394   1_554  A
C2735      S2739   1.797       .  S
C2736      H2740   1.084       .  S
S2737      H2742   1.406       .  S
S2739      H2743   1.407       .  S
C2745      C2746   1.403       .  A
C2745      C2750   1.409       .  A
C2745      H2755   1.083       .  S
C2746      C2751   1.485       .  S
C2746      C2747   1.408       .  A
C2747      C2748   1.396       .  A
C2747      S2752   1.805       .  S
C2748      C2749   1.410       .  A
C2748      H2753   1.083       .  S
C2749      C2750   1.422       .  A
C2750      S2754   1.809       .  S
C2751      C2756   1.407       .  A
C2751      C2760   1.401       .  A
S2752      H2768   1.406       .  S
S2754      H2765   1.407       .  S
C2756      C2757   1.405       .  A
C2756      S2761   1.806       .  S
C2757      C2758   1.412       .  A
C2757      H2762   1.082       .  S
C2758      C2759   1.421       .  A
C2759      C2760   1.399       .  A
C2759      S2763   1.802       .  S
C2760      H2764   1.084       .  S
S2761      H2766   1.407       .  S
S2763      H2767   1.408       .  S
C2769      C2770   1.405   1_554  A
C2769      C2774   1.404       .  A
C2769      H2779   1.084       .  S
C2770      C2775   1.493   1_556  S
C2770      C2771   1.414   1_565  A
C2771      C2772   1.402       .  A
C2771      S2776   1.805       .  S
C2772      C2773   1.406   1_545  A
C2772      H2777   1.084       .  S
C2773      C2774   1.418   1_556  A
C2774      S2778   1.803       .  S
C2775      C2780   1.413       .  A
C2775      C2784   1.403   1_565  A
S2776      H2792   1.406       .  S
S2778      H2789   1.408       .  S
C2780      C2781   1.409       .  A
C2780      S2785   1.806   1_554  S
C2781      C2782   1.406       .  A
C2781      H2786   1.083       .  S
C2782      C2783   1.414   1_565  A
C2783      C2784   1.399       .  A
C2783      S2787   1.803       .  S
C2784      H2788   1.084       .  S
S2785      H2790   1.407   1_556  S
S2787      H2791   1.407       .  S
C2793      C2794   1.400       .  A
C2793      C2798   1.401       .  A
C2793      H2803   1.085       .  S
C2794      C2799   1.482       .  S
C2794      C2795   1.411       .  A
C2795      C2796   1.401       .  A
C2795      S2800   1.804       .  S
C2796      C2797   1.408       .  A
C2796      H2801   1.084       .  S
C2797      C2798   1.419       .  A
C2798      S2802   1.802       .  S
C2799      C2804   1.409       .  A
C2799      C2808   1.401       .  A
S2800      H2816   1.405       .  S
S2802      H2813   1.408       .  S
C2804      C2805   1.406       .  A
C2804      S2809   1.806       .  S
C2805      C2806   1.407       .  A
C2805      H2810   1.083       .  S
C2806      C2807   1.415       .  A
C2807      C2808   1.400       .  A
C2807      S2811   1.803       .  S
C2808      H2812   1.084       .  S
S2809      H2814   1.407       .  S
S2811      H2815   1.408       .  S
C2817      C2818   1.400       .  A
C2817      C2822   1.397       .  A
C2817      H2827   1.084       .  S
C2818      C2823   1.491       .  S
C2818      C2819   1.418       .  A
C2819      C2820   1.405       .  A
C2819      S2824   1.805       .  S
C2820      C2821   1.404       .  A
C2820      H2825   1.084       .  S
C2821      C2822   1.423       .  A
C2822      S2826   1.805       .  S
C2823      C2828   1.412       .  A
C2823      C2832   1.404       .  A
S2824      H2840   1.406       .  S
S2826      H2837   1.404       .  S
C2828      C2829   1.406       .  A
C2828      S2833   1.806       .  S
C2829      C2830   1.408       .  A
C2829      H2834   1.083       .  S
C2830      C2831   1.414       .  A
C2831      C2832   1.398       .  A
C2831      S2835   1.798       .  S
C2832      H2836   1.084       .  S
S2833      H2838   1.407       .  S
S2835      H2839   1.407       .  S
C2841      C2842   1.408       .  A
C2841      C2846   1.404       .  A
C2841      H2851   1.084       .  S
C2842      C2847   1.482       .  S
C2842      C2843   1.410       .  A
C2843      C2844   1.395       .  A
C2843      S2848   1.804       .  S
C2844      C2845   1.404       .  A
C2844      H2849   1.085       .  S
C2845      C2846   1.410       .  A
C2846      S2850   1.803       .  S
C2847      C2852   1.412       .  A
C2847      C2856   1.403       .  A
S2848      H2864   1.407       .  S
S2850      H2861   1.406       .  S
C2852      C2853   1.398       .  A
C2852      S2857   1.806       .  S
C2853      C2854   1.409       .  A
C2853      H2858   1.085       .  S
C2854      C2855   1.416       .  A
C2855      C2856   1.400       .  A
C2855      S2859   1.797   1_554  S
C2856      H2860   1.084       .  S
S2857      H2862   1.397       .  S
S2859      H2863   1.407       .  S
C2865      C2866   1.400   1_545  A
C2865      C2870   1.402       .  A
C2865      H2875   1.084       .  S
C2866      C2871   1.489       .  S
C2866      C2867   1.412       .  A
C2867      C2868   1.406       .  A
C2867      S2872   1.804       .  S
C2868      C2869   1.411   1_565  A
C2868      H2873   1.083       .  S
C2869      C2870   1.425       .  A
C2870      S2874   1.802       .  S
C2871      C2876   1.411   1_565  A
C2871      C2880   1.403       .  A
S2872      H2888   1.405       .  S
S2874      H2885   1.405       .  S
C2876      C2877   1.406       .  A
C2876      S2881   1.807       .  S
C2877      C2878   1.406   1_545  A
C2877      H2882   1.083       .  S
C2878      C2879   1.416       .  A
C2879      C2880   1.404       .  A
C2879      S2883   1.804       .  S
C2880      H2884   1.084       .  S
S2881      H2886   1.407       .  S
S2883      H2887   1.407       .  S
C2889      C2890   1.404       .  A
C2889      C2894   1.402       .  A
C2889      H2899   1.084       .  S
C2890      C2895   1.483       .  S
C2890      C2891   1.413       .  A
C2891      C2892   1.400       .  A
C2891      S2896   1.805       .  S
C2892      C2893   1.403       .  A
C2892      H2897   1.084       .  S
C2893      C2894   1.414       .  A
C2894      S2898   1.805       .  S
C2895      C2900   1.409       .  A
C2895      C2904   1.401       .  A
S2896      H2912   1.405       .  S
S2898      H2909   1.406       .  S
C2900      C2901   1.404       .  A
C2900      S2905   1.807       .  S
C2901      C2902   1.407       .  A
C2901      H2906   1.083       .  S
C2902      C2903   1.418       .  A
C2903      C2904   1.401       .  A
C2903      S2907   1.802       .  S
C2904      H2908   1.084       .  S
S2905      H2910   1.407       .  S
S2907      H2911   1.407       .  S
C2913      C2914   1.404       .  A
C2913      C2918   1.403       .  A
C2913      H2923   1.084       .  S
C2914      C2919   1.493       .  S
C2914      C2915   1.416       .  A
C2915      C2916   1.403       .  A
C2915      S2920   1.802       .  S
C2916      C2917   1.405       .  A
C2916      H2921   1.084       .  S
C2917      C2918   1.417       .  A
C2918      S2922   1.805       .  S
C2919      C2924   1.410       .  A
C2919      C2928   1.408       .  A
S2920      H2936   1.406       .  S
S2922      H2933   1.407       .  S
C2924      C2925   1.405       .  A
C2924      S2929   1.807       .  S
C2925      C2926   1.409       .  A
C2925      H2930   1.083       .  S
C2926      C2927   1.412       .  A
C2927      C2928   1.406       .  A
C2927      S2931   1.802       .  S
C2928      H2932   1.084       .  S
S2929      H2934   1.407       .  S
S2931      H2935   1.407       .  S
C2937      C2938   1.400       .  A
C2937      C2942   1.400       .  A
C2937      H2947   1.085       .  S
C2938      C2943   1.479       .  S
C2938      C2939   1.412       .  A
C2939      C2940   1.399       .  A
C2939      S2944   1.806       .  S
C2940      C2941   1.407       .  A
C2940      H2945   1.084       .  S
C2941      C2942   1.419       .  A
C2942      S2946   1.801       .  S
C2943      C2948   1.403       .  A
C2943      C2952   1.402       .  A
S2944      H2960   1.402   1_545  S
S2946      H2957   1.407       .  S
C2948      C2949   1.400       .  A
C2948      S2953   1.808       .  S
C2949      C2950   1.413       .  A
C2949      H2954   1.081       .  S
C2950      C2951   1.420       .  A
C2951      C2952   1.407       .  A
C2951      S2955   1.808   1_545  S
C2952      H2956   1.082   1_545  S
S2953      H2958   1.407       .  S
S2955      H2959   1.406       .  S
C2961      C2962   1.404       .  A
C2961      C2966   1.404       .  A
C2961      H2971   1.084       .  S
C2962      C2967   1.481       .  S
C2962      C2963   1.409       .  A
C2963      C2964   1.396       .  A
C2963      S2968   1.805       .  S
C2964      C2965   1.410       .  A
C2964      H2969   1.083       .  S
C2965      C2966   1.417       .  A
C2966      S2970   1.801   1_545  S
C2967      C2972   1.409       .  A
C2967      C2976   1.400       .  A
S2968      H2984   1.406       .  S
S2970      H2981   1.408   1_565  S
C2972      C2973   1.402       .  A
C2972      S2977   1.806       .  S
C2973      C2974   1.407       .  A
C2973      H2978   1.083       .  S
C2974      C2975   1.418       .  A
C2975      C2976   1.401       .  A
C2975      S2979   1.802       .  S
C2976      H2980   1.084       .  S
S2977      H2982   1.407   1_545  S
S2979      H2983   1.408       .  S
C2985      C2986   1.399       .  A
C2985      C2990   1.402       .  A
C2985      H2995   1.083       .  S
C2986      C2991   1.490       .  S
C2986      C2987   1.415       .  A
C2987      C2988   1.402       .  A
C2987      S2992   1.804       .  S
C2988      C2989   1.405       .  A
C2988      H2993   1.084       .  S
C2989      C2990   1.423       .  A
C2990      S2994   1.811       .  S
C2991      C2996   1.413       .  A
C2991      C3000   1.405       .  A
S2992      H3008   1.406       .  S
S2994      H3005   1.407       .  S
C2996      C2997   1.403       .  A
C2996      S3001   1.808       .  S
C2997      C2998   1.406       .  A
C2997      H3002   1.082       .  S
C2998      C2999   1.414       .  A
C2999      C3000   1.401       .  A
C2999      S3003   1.804       .  S
C3000      H3004   1.084       .  S
S3001      H3006   1.406       .  S
S3003      H3007   1.407       .  S
