geometry optimzed in LAMMPS
_audit_creation_date              2020-11-30 
_audit_creation_method            'lammps2cif' 
_symmetry_space_group_name_H-M    'P1' 
_symmetry_Int_Tables_number       1 
_symmetry_cell_setting            triclinic 
loop_ 
_symmetry_equiv_pos_as_xyz 
  x,y,z 
_cell_length_a                    33.24997788 
_cell_length_b                    33.36834132507174 
_cell_length_c                    64.46331479720892 
_cell_angle_alpha                 89.69075269159765 
_cell_angle_beta                  90.50359151230988 
_cell_angle_gamma                 119.72926228373282 
loop_ 
_atom_site_label 
_atom_site_type_symbol 
_atom_site_fract_x 
_atom_site_fract_y 
_atom_site_fract_z 
_atom_site_charge 
O1          O  0.65497010  0.75855566  0.56956552    -0.81500
O2          O  0.61133484  0.77114964  0.66157254    -0.66200
O3          O  0.65864024  0.80453986  0.60669599    -1.12800
C4          C  0.77936584  0.78100990  0.62973392     1.05400
O5          O  0.68020437  0.80696709  0.67727327    -0.79400
O6          O  0.74628050  0.86161367  0.65006803    -0.67000
Ni7        Ni  0.61853086  0.78082244  0.58321715     1.34900
C8          C  0.76006231  0.87773772  0.63200207     0.84100
O9          O  0.58632784  0.80414906  0.62916504    -0.79900
O10         O  0.57865018  0.80142760  0.59444372    -0.90200
C11         C  0.63630677  0.78705986  0.67767800     0.83700
O12         O  0.57851196  0.71980957  0.59312531    -0.68400
O13         O  0.77260374  0.79539664  0.64687338    -0.87700
C14         C  0.56912604  0.70180948  0.61107699     0.84500
C15         C  0.56745788  0.80801502  0.61247922     1.06100
H16         H  0.66775936  0.73860056  0.63920292     0.37900
O17         O  0.68137890  0.77160694  0.63760875    -1.10400
O18         O  0.75024122  0.85210955  0.61602315    -0.67000
Ni19       Ni  0.70572989  0.78815799  0.61003099     1.26300
O20         O  0.58940239  0.72398376  0.62744456    -0.67200
O21         O  0.75248261  0.77145649  0.61416059    -0.79500
C22         C  0.69862816  0.77889706  0.56719439     0.83900
O23         O  0.72573714  0.80214085  0.58185901    -0.66700
Ni24       Ni  0.72378877  0.80044021  0.66019596     1.27400
Ni25       Ni  0.63342087  0.78734480  0.63385904     1.26100
H26         H  0.67300775  0.83772769  0.60576287     0.38400
O27         O  0.77614056  0.64367668  0.43431259    -0.81500
O28         O  0.78801576  0.59840205  0.34153160    -0.66200
O29         O  0.82006489  0.64642958  0.39659516    -1.12800
C30         C  0.79788719  0.76672429  0.37168698     1.05400
O31         O  0.82865090  0.66673549  0.32640856    -0.79400
O32         O  0.87988941  0.73299800  0.35384121    -0.67000
Ni33       Ni  0.79581316  0.60611218  0.41993871     1.34900
C34         C  0.89481230  0.74716368  0.37203331     0.84100
O35         O  0.82065235  0.57459297  0.37397060    -0.79900
O36         O  0.81291955  0.56378562  0.40836557    -0.90200
C37         C  0.80751497  0.62295456  0.32577849     0.83700
O38         O  0.73418217  0.56918949  0.41002444    -0.68400
O39         O  0.81316556  0.75907794  0.35497497    -0.87700
C40         C  0.71700240  0.55810805  0.39193131     0.84500
C41         C  0.82088786  0.55348877  0.39042077     1.06100
H42         H  0.75544184  0.65520477  0.36276641     0.37900
O43         O  0.78839814  0.66866562  0.36495139    -1.10400
O44         O  0.86805122  0.73778550  0.38753827    -0.67000
Ni45       Ni  0.80348381  0.69339499  0.39259987     1.26300
O46         O  0.74002307  0.57665053  0.37553152    -0.67200
O47         O  0.78708979  0.74020309  0.38742908    -0.79500
C48         C  0.79363224  0.68711617  0.43586406     0.83900
O49         O  0.81562906  0.71386743  0.42093601    -0.66700
Ni50       Ni  0.81953226  0.71023178  0.34247895     1.27400
Ni51       Ni  0.80369456  0.62096335  0.36926530     1.26100
H52         H  0.85335428  0.66086281  0.39782090     0.38400
O53         O  0.34581610  0.10551646  0.43310542    -0.81500
O54         O  0.38303620  0.17030798  0.34128556    -0.66200
O55         O  0.34072106  0.15263406  0.39738661    -1.12800
C56         C  0.21545205  0.01551143  0.37276260     1.05400
O57         O  0.31320570  0.14802674  0.32822121    -0.79400
O58         O  0.25135851  0.13441494  0.35761300    -0.67000
Ni59       Ni  0.38274910  0.16445685  0.41995840     1.34900
C60         C  0.23848126  0.13238115  0.37621360     0.84100
O61         O  0.41295867  0.22492453  0.37500705    -0.79900
O62         O  0.42394198  0.22499929  0.40945672    -0.90200
C63         C  0.35663085  0.16536123  0.32602430     0.83700
O64         O  0.41836676  0.14048912  0.40782977    -0.68400
O65         O  0.22046862  0.04047764  0.35684918    -0.87700
C66         C  0.42500978  0.13253101  0.38933433     0.84500
C67         C  0.43369881  0.24492219  0.39181296     1.06100
H68         H  0.32531899  0.08141342  0.36157464     0.37900
O69         O  0.31352784  0.10180858  0.36500060    -1.10400
O70         O  0.24800448  0.11180749  0.39043572    -0.67000
Ni71       Ni  0.29231796  0.09051584  0.39308410     1.26300
O72         O  0.40535205  0.13913260  0.37373068    -0.67200
O73         O  0.24456773  0.02884150  0.38764567    -0.79500
C74         C  0.30230901  0.08238376  0.43566573     0.83900
O75         O  0.27462879  0.08047185  0.42158150    -0.66700
Ni76       Ni  0.26952476  0.09542854  0.34412103     1.27400
Ni77       Ni  0.36367223  0.16304521  0.36959428     1.26100
H78         H  0.32725373  0.17210337  0.39957862     0.38400
O79         O  0.21844787  0.85737256  0.56537943    -0.81500
O80         O  0.20043391  0.79500151  0.65894897    -0.66200
O81         O  0.17552753  0.81766462  0.60346740    -1.12800
C82         C  0.20244408  0.96140553  0.62600803     1.05400
O83         O  0.18946033  0.84649391  0.67620443    -0.79400
O84         O  0.12580431  0.84799313  0.64899352    -0.67000
Ni85       Ni  0.20285643  0.80236530  0.58109428     1.34900
C86         C  0.10766615  0.84721244  0.63138939     0.84100
O87         O  0.16462774  0.74165177  0.62617534    -0.79900
O88         O  0.18919320  0.74437015  0.59372254    -0.90200
C89         C  0.19713563  0.81288858  0.67566385     0.83700
O90         O  0.26439644  0.83238853  0.59200050    -0.68400
O91         O  0.18537401  0.93920841  0.64265377    -0.87700
C92         C  0.27769267  0.83020989  0.61025210     0.84500
C93         C  0.17184514  0.72274610  0.61062320     1.06100
H94         H  0.24559191  0.88797811  0.63593253     0.37900
O95         O  0.21204454  0.87167077  0.63472117    -1.10400
O96         O  0.13165598  0.86374443  0.61486384    -0.67000
Ni97       Ni  0.19516989  0.88132084  0.60735231     1.26300
O98         O  0.25068668  0.81792237  0.62575711    -0.67200
O99         O  0.21556277  0.94525797  0.61148917    -0.79500
C100        C  0.20228732  0.88480662  0.56430235     0.83900
O101        O  0.18065124  0.88952294  0.57938139    -0.66700
Ni102      Ni  0.18767888  0.89015547  0.65731001     1.27400
Ni103      Ni  0.18862939  0.80618724  0.63103324     1.26100
H104        H  0.14237705  0.80052024  0.60135356     0.38400
O105        O  0.11564376  0.32723235  0.56898653    -0.81500
O106        O  0.18228319  0.37108736  0.66097756    -0.66200
O107        O  0.16197584  0.32368008  0.60549800    -1.12800
C108        C  0.02432973  0.20214073  0.63171161     1.05400
O109        O  0.16043419  0.30245282  0.67484913    -0.79400
O110        O  0.14276298  0.23690919  0.64649618    -0.67000
Ni111      Ni  0.17549425  0.36362729  0.58214450     1.34900
C112        C  0.13987770  0.22253037  0.62807291     0.84100
O113        O  0.23587176  0.39676471  0.62723447    -0.79900
O114        O  0.23715436  0.40394453  0.59255807    -0.90200
C115        C  0.17905386  0.34601216  0.67644053     0.83700
O116        O  0.15438184  0.40269718  0.59320476    -0.68400
O117        O  0.04965478  0.20924029  0.64779646    -0.87700
C118        C  0.14686693  0.41164598  0.61140966     0.84500
C119        C  0.25674383  0.41529419  0.61036415     1.06100
H120        H  0.09209297  0.31293011  0.64114716     0.37900
O121        O  0.11197658  0.30031950  0.63800101    -1.10400
O122        O  0.11953607  0.23175793  0.61358540    -0.67000
Ni123      Ni  0.09918191  0.27658523  0.61020818     1.26300
O124        O  0.15118807  0.39182482  0.62754206    -0.67200
O125        O  0.03715195  0.22972403  0.61630503    -0.79500
C126        C  0.08987499  0.28371524  0.56728856     0.83900
O127        O  0.08752783  0.25679530  0.58179395    -0.66700
Ni128      Ni  0.10597955  0.25834906  0.65968313     1.27400
Ni129      Ni  0.17357914  0.34918148  0.63291662     1.26100
H130        H  0.18081035  0.30930129  0.60388155     0.38400
O131        O  0.86817734  0.20722169  0.43421471    -0.81500
O132        O  0.81014280  0.18806094  0.34056739    -0.66200
O133        O  0.82832321  0.16098053  0.39643332    -1.12800
C134        C  0.97324904  0.18753832  0.37676036     1.05400
O135        O  0.86083855  0.17349414  0.32460342    -0.79400
O136        O  0.85869177  0.10975571  0.35291218    -0.67000
Ni137      Ni  0.81044900  0.18487775  0.41915930     1.34900
C138        C  0.85831026  0.09263518  0.37069645     0.84100
O139        O  0.75367835  0.15248402  0.37270063    -0.79900
O140        O  0.75039145  0.16366800  0.40683866    -0.90200
C141        C  0.82865924  0.18350623  0.32429326     0.83700
O142        O  0.83240142  0.24558943  0.40852461    -0.68400
O143        O  0.95089985  0.16845504  0.36026467    -0.87700
C144        C  0.83690674  0.26143826  0.39022933     0.84500
C145        C  0.73141782  0.15128227  0.38895838     1.06100
H146        H  0.90144957  0.23060784  0.36471421     0.37900
O147        O  0.88448440  0.19741886  0.36611340    -1.10400
O148        O  0.87609083  0.11779792  0.38682304    -0.67000
Ni149      Ni  0.89237082  0.18090086  0.39383483     1.26300
O150        O  0.83178935  0.23737980  0.37416467    -0.67200
O151        O  0.95676330  0.20167822  0.39072385    -0.79500
C152        C  0.89298997  0.18829131  0.43679533     0.83900
O153        O  0.89833394  0.16623552  0.42209651    -0.66700
Ni154      Ni  0.90288875  0.17095692  0.34442908     1.27400
Ni155      Ni  0.81876063  0.17524990  0.36875597     1.26100
H156        H  0.81124302  0.12779768  0.39788815     0.38400
O157        O  0.68127153  0.82810208  0.82973327    -0.81500
O158        O  0.72055715  0.80242696  0.92345308    -0.66200
O159        O  0.68053448  0.78319742  0.86686774    -1.12800
C160        C  0.56856197  0.82060181  0.89237473     1.05400
O161        O  0.64876344  0.76047926  0.93458060    -0.79400
O162        O  0.57284114  0.73079095  0.91038898    -0.67000
Ni163      Ni  0.72400142  0.81677636  0.84565494     1.34900
C164        C  0.56615637  0.71210269  0.89265000     0.84100
O165        O  0.74793767  0.77639027  0.89013038    -0.79900
O166        O  0.77152132  0.80761729  0.85863080    -0.90200
C167        C  0.69207497  0.77587826  0.93688210     0.83700
O168        O  0.74623138  0.87556826  0.85825035    -0.68400
O169        O  0.58155245  0.81629211  0.91057825    -0.87700
C170        C  0.75986050  0.88787341  0.87673850     0.84500
C171        C  0.77599459  0.78852280  0.87505306     1.06100
H172        H  0.67241926  0.84578875  0.89949371     0.37900
O173        O  0.65711983  0.81257725  0.89833472    -1.10400
O174        O  0.58936542  0.73346578  0.87671200    -0.67000
Ni175      Ni  0.63213682  0.79746014  0.87087357     1.26300
O176        O  0.74976555  0.85898591  0.89150436    -0.67200
O177        O  0.58436966  0.81282653  0.87578855    -0.79500
C178        C  0.63755869  0.80436126  0.82745906     0.83900
O179        O  0.61115450  0.78336393  0.84261660    -0.66700
Ni180      Ni  0.61681412  0.78937047  0.92148700     1.27400
Ni181      Ni  0.70283502  0.79457756  0.89486530     1.26100
H182        H  0.66743313  0.75068053  0.86398203     0.38400
O183        O  0.83698901  0.66547144  0.17281456    -0.81500
O184        O  0.81481561  0.69966379  0.07921920    -0.66200
O185        O  0.79109756  0.66070414  0.13566971    -1.12800
C186        C  0.83797973  0.55368200  0.11255745     1.05400
O187        O  0.77392848  0.62724195  0.06877927    -0.79400
O188        O  0.74654370  0.55147735  0.09290632    -0.67000
Ni189      Ni  0.81875281  0.70384579  0.15767279     1.34900
C190        C  0.72578860  0.54413441  0.11015364     0.84100
O191        O  0.78571183  0.72840298  0.11130295    -0.79900
O192        O  0.80296513  0.74662101  0.14488871    -0.90200
C193        C  0.79023693  0.67024919  0.06553327     0.83700
O194        O  0.87961421  0.73626752  0.14668795    -0.68400
O195        O  0.83476727  0.56649445  0.09418282    -0.87700
C196        C  0.89475284  0.74658488  0.12831750     0.84500
C197        C  0.79037541  0.75341135  0.12705331     1.06100
H198        H  0.85790976  0.65441228  0.10505353     0.37900
O199        O  0.82449450  0.63834882  0.10556633    -1.10400
O200        O  0.74477707  0.56874092  0.12619642    -0.67000
Ni201      Ni  0.80827053  0.61386543  0.13285911     1.26300
O202        O  0.86874786  0.73013691  0.11239985    -0.67200
O203        O  0.82680934  0.56778179  0.12882985    -0.79500
C204        C  0.81481684  0.62213557  0.17594340     0.83900
O205        O  0.79374007  0.59409978  0.16120937    -0.66700
Ni206      Ni  0.80482592  0.59808871  0.08247182     1.27400
Ni207      Ni  0.80481390  0.68307210  0.10783695     1.26100
H208        H  0.75794537  0.64609596  0.13743556     0.38400
O209        O  0.32182303  0.11175384  0.17549338    -0.81500
O210        O  0.27649300  0.07657091  0.07827307    -0.66200
O211        O  0.32206104  0.08771903  0.13403916    -1.12800
C212        C  0.42605793  0.24280573  0.11160624     1.05400
O213        O  0.34759605  0.10856379  0.06609653    -0.79400
O214        O  0.42435471  0.15051615  0.09040270    -0.67000
Ni215      Ni  0.27793657  0.06883114  0.15600225     1.34900
C216        C  0.43512016  0.14102509  0.10798534     0.84100
O217        O  0.25400156  0.01676271  0.10917864    -0.79900
O218        O  0.22804767  0.02021943  0.14043298    -0.90200
C219        C  0.30410256  0.08245430  0.06360934     0.83700
O220        O  0.25950734  0.11228620  0.14769905    -0.68400
O221        O  0.41505819  0.22674274  0.09320728    -0.87700
C222        C  0.24298690  0.11387368  0.13002258     0.84500
C223        C  0.22418807  0.99937888  0.12346143     1.06100
H224        H  0.32359533  0.16214186  0.10396806     0.37900
O225        O  0.34038267  0.14540434  0.10437408    -1.10400
O226        O  0.41366906  0.13886464  0.12458212    -0.67000
Ni227      Ni  0.36591065  0.15312066  0.13160966     1.26300
O228        O  0.25002011  0.09657140  0.11375437    -0.67200
O229        O  0.40929705  0.21810862  0.12790157    -0.79500
C230        C  0.36421200  0.14272995  0.17589963     0.83900
O231        O  0.38819606  0.15965939  0.15964505    -0.66700
Ni232      Ni  0.37978117  0.16661086  0.08091305     1.27400
Ni233      Ni  0.29723736  0.08116842  0.10643720     1.26100
H234        H  0.33817142  0.07037349  0.13513634     0.38400
O235        O  0.15796695  0.82557845  0.82488635    -0.81500
O236        O  0.17801590  0.88668983  0.91977588    -0.66200
O237        O  0.19865360  0.86467648  0.86351002    -1.12800
C238        C  0.16274603  0.71726058  0.89016999     1.05400
O239        O  0.21821335  0.85600577  0.93287614    -0.79400
O240        O  0.25443759  0.81790112  0.90807569    -0.67000
Ni241      Ni  0.16370011  0.87456663  0.84239549     1.34900
C242        C  0.27060934  0.82486774  0.88982942     0.84100
O243        O  0.20538709  0.93892195  0.88603882    -0.79900
O244        O  0.16650979  0.92691742  0.85629324    -0.90200
C245        C  0.20178990  0.88313020  0.93440424     0.83700
O246        O  0.10600859  0.83290871  0.85472607    -0.68400
O247        O  0.17193446  0.73622613  0.90802966    -0.87700
C248        C  0.09339211  0.83582196  0.87289733     0.84500
C249        C  0.18780876  0.95207159  0.87187812     1.06100
H250        H  0.13595635  0.79514151  0.89722013     0.37900
O251        O  0.16916755  0.81284713  0.89563704    -1.10400
O252        O  0.24659644  0.82041444  0.87361100    -0.67000
Ni253      Ni  0.18259778  0.80167684  0.86804134     1.26300
O254        O  0.12240150  0.85801815  0.88731180    -0.67200
O255        O  0.16547904  0.73870544  0.87335742    -0.79500
C256        C  0.17698819  0.80072493  0.82391713     0.83900
O257        O  0.19487626  0.79261761  0.83977998    -0.66700
Ni258      Ni  0.19422583  0.79714930  0.91900740     1.27400
Ni259      Ni  0.18717878  0.87610965  0.89141593     1.26100
H260        H  0.23121377  0.88336690  0.86052675     0.38400
O261        O  0.15178460  0.30026842  0.83082802    -0.81500
O262        O  0.10492409  0.26413129  0.92559737    -0.66200
O263        O  0.11391845  0.30366655  0.86917013    -1.12800
C264        C  0.26712267  0.41475374  0.89076875     1.05400
O265        O  0.13569397  0.33579284  0.93695023    -0.79400
O266        O  0.17649304  0.41123400  0.91216754    -0.67000
Ni267      Ni  0.09846130  0.26065721  0.84715170     1.34900
C268        C  0.16186806  0.41813684  0.89498012     0.84100
O269        O  0.04446998  0.23489312  0.89420521    -0.79900
O270        O  0.04269518  0.21606358  0.86075271    -0.90200
C271        C  0.11030792  0.29249890  0.93982413     0.83700
O272        O  0.13228967  0.23281423  0.85756505    -0.68400
O273        O  0.25333758  0.40235165  0.90934913    -0.87700
C274        C  0.13822765  0.22227102  0.87579562     0.84500
C275        C  0.02406967  0.20930623  0.87858636     1.06100
H276        H  0.19055103  0.31227130  0.89898275     0.37900
O277        O  0.17222763  0.32744475  0.89878450    -1.10400
O278        O  0.15738584  0.39486883  0.87866149    -0.67000
Ni279      Ni  0.17727881  0.35152907  0.87138691     1.26300
O280        O  0.12676356  0.23590366  0.89190382    -0.67200
O281        O  0.24084532  0.39895215  0.87480576    -0.79500
C282        C  0.17360264  0.34365856  0.82802348     0.83900
O283        O  0.18021433  0.37130834  0.84288689    -0.66700
Ni284      Ni  0.19355673  0.36767866  0.92199144     1.27400
Ni285      Ni  0.10839498  0.28142577  0.89708591     1.26100
H286        H  0.09432622  0.31732006  0.86768558     0.38400
O287        O  0.84264133  0.14233898  0.17424226    -0.81500
O288        O  0.91069155  0.16350140  0.08118963    -0.66200
O289        O  0.88965986  0.18397476  0.13728903    -1.12800
C290        C  0.74377598  0.15437962  0.10946167     1.05400
O291        O  0.88324030  0.20763005  0.06933045    -0.79400
O292        O  0.83654210  0.23952630  0.09193985    -0.67000
Ni293      Ni  0.89323487  0.14560700  0.15832787     1.34900
C294        C  0.85047544  0.25979481  0.10931574     0.84100
O295        O  0.96226050  0.18568050  0.11576441    -0.79900
O296        O  0.94623167  0.14636476  0.14561314    -0.90200
C297        C  0.90882555  0.18944931  0.06719908     0.83700
O298        O  0.85053726  0.08952910  0.14483686    -0.68400
O299        O  0.75994590  0.15469585  0.09149783    -0.87700
C300        C  0.85487795  0.07692337  0.12687288     0.84500
C301        C  0.97328928  0.16728731  0.13046524     1.06100
H302        H  0.81859079  0.12431308  0.10433398     0.37900
O303        O  0.83800090  0.15742941  0.10513834    -1.10400
O304        O  0.85480693  0.23972062  0.12538089    -0.67000
Ni305      Ni  0.82917094  0.17496132  0.13200677     1.26300
O306        O  0.87909516  0.10600375  0.11292879    -0.67200
O307        O  0.76794212  0.16437292  0.12609862    -0.79500
C308        C  0.82498497  0.16852000  0.17534302     0.83900
O309        O  0.82284780  0.19080311  0.15974802    -0.66700
Ni310      Ni  0.82218161  0.18048003  0.08139432     1.27400
Ni311      Ni  0.90046767  0.17167139  0.10960708     1.26100
H312        H  0.91091898  0.21588084  0.14066682     0.38400
C313        C  0.05637233  0.29091458  0.99162479    -0.11400
C314        C  0.02976051  0.24346059  0.99579805     0.05700
C315        C  0.03213334  0.21206772  0.98212004    -0.10200
C316        C  0.05894913  0.22787361  0.96408461    -0.11900
C317        C  0.08439015  0.27540796  0.95956532    -0.01600
C318        C  0.08349921  0.30671206  0.97380713    -0.10800
C319        C  0.99761161  0.22733797  0.01368954     0.05700
H320        H  0.01189029  0.17529839  0.98497269     0.07600
H321        H  0.05910320  0.20285447  0.95350310     0.11100
H322        H  0.10282473  0.34351773  0.97092865     0.11400
H323        H  0.05563548  0.31587117  0.00206324     0.07700
C324        C  0.99614115  0.19439313  0.02781666    -0.11500
C325        C  0.96708909  0.18158898  0.04518189    -0.10700
C326        C  0.93856006  0.20106562  0.04853835    -0.01700
C327        C  0.93926347  0.23293835  0.03399040    -0.11800
C328        C  0.96848730  0.24598659  0.01686876    -0.10200
H329        H  0.01827487  0.17949178  0.02570006     0.07700
H330        H  0.96729648  0.15684250  0.05605864     0.11400
H331        H  0.91761316  0.24842582  0.03594863     0.11100
H332        H  0.96836133  0.27085208  0.00603484     0.07700
C333        C  0.12650061  0.59562893  0.90703034    -0.11400
C334        C  0.13825621  0.57837930  0.88966260     0.05700
C335        C  0.15277580  0.60532006  0.87150058    -0.10200
C336        C  0.15826852  0.64971460  0.87120949    -0.11900
C337        C  0.14978880  0.66806882  0.88913835    -0.01600
C338        C  0.13256973  0.64007074  0.90682956    -0.10800
C339        C  0.13993439  0.53479304  0.89129871     0.05700
H340        H  0.16240407  0.59320641  0.85789694     0.07600
H341        H  0.17163370  0.67057626  0.85735422     0.11100
H342        H  0.12499568  0.65302016  0.92076494     0.11400
H343        H  0.11403035  0.57529998  0.92107207     0.07700
C344        C  0.15658769  0.52495158  0.90962298    -0.11500
C345        C  0.16203290  0.48624262  0.91096207    -0.10700
C346        C  0.15136080  0.45639207  0.89394566    -0.01700
C347        C  0.13366916  0.46550061  0.87572908    -0.11800
C348        C  0.12795086  0.50430677  0.87443047    -0.10200
H349        H  0.16717239  0.54815792  0.92276062     0.07700
H350        H  0.17609383  0.48062494  0.92519329     0.11400
H351        H  0.12505778  0.44315770  0.86234996     0.11100
H352        H  0.11463479  0.51071778  0.86016567     0.07700
C353        C  0.17260273  0.05390700  0.85870813    -0.11400
C354        C  0.18578281  0.07926844  0.87724488     0.05700
C355        C  0.20116248  0.06325737  0.89404936    -0.10200
C356        C  0.20329612  0.02252045  0.89225185    -0.11900
C357        C  0.18963656  0.99705990  0.87368392    -0.01600
C358        C  0.17464339  0.01348742  0.85692391    -0.10800
C359        C  0.18149150  0.12122243  0.87881537     0.05700
H360        H  0.21148764  0.08219704  0.90851555     0.07600
H361        H  0.21465431  0.01048591  0.90548783     0.11100
H362        H  0.16364533  0.99468054  0.84243140     0.11400
H363        H  0.15954191  0.06472945  0.84565272     0.07700
C364        C  0.19320738  0.15117754  0.86175049    -0.11500
C365        C  0.18129661  0.18567379  0.86131434    -0.10700
C366        C  0.15780103  0.19131382  0.87803484    -0.01700
C367        C  0.14964561  0.16406835  0.89589735    -0.11800
C368        C  0.16124834  0.12906618  0.89625215    -0.10200
H369        H  0.20993860  0.14668429  0.84832792     0.07700
H370        H  0.18895730  0.20683643  0.84751609     0.11400
H371        H  0.13182205  0.16792496  0.90905674     0.11100
H372        H  0.15184188  0.10645472  0.90961201     0.07700
C373        C  0.22297913  0.00348259  0.02109124    -0.11400
C374        C  0.25463809  0.00210721  0.00714808     0.05700
C375        C  0.30224136  0.02963956  0.01136132    -0.10200
C376        C  0.31789590  0.05641572  0.02934080    -0.11900
C377        C  0.28645583  0.05635742  0.04380140    -0.01600
C378        C  0.23871670  0.03010933  0.03931065    -0.10800
C379        C  0.23892382  0.97052414  0.98882908     0.05700
H380        H  0.32759193  0.03011255  0.00077971     0.07600
H381        H  0.35486928  0.07638379  0.03212951     0.11100
H382        H  0.21354202  0.02955376  0.05002660     0.11400
H383        H  0.18607991  0.98269814  0.01829062     0.07700
C384        C  0.26123393  0.94528206  0.98420567    -0.11500
C385        C  0.24853275  0.91672997  0.96679133    -0.10700
C386        C  0.21326845  0.91264384  0.95327673    -0.01700
C387        C  0.19031600  0.93738427  0.95795816    -0.11800
C388        C  0.20276240  0.96574207  0.97566651    -0.10200
H389        H  0.28865388  0.94748884  0.99416968     0.07700
H390        H  0.26700323  0.89827885  0.96376760     0.11400
H391        H  0.16286978  0.93489656  0.94792978     0.02700
H392        H  0.18491367  0.98475931  0.97879103     0.07700
C393        C  0.17053367  0.16709291  0.14563837    -0.11400
C394        C  0.14326516  0.15984290  0.12777990     0.05700
C395        C  0.15300419  0.14264944  0.10982462    -0.10200
C396        C  0.18720747  0.12988139  0.11019552    -0.11900
C397        C  0.21224010  0.13408115  0.12854309    -0.01600
C398        C  0.20466637  0.15437451  0.14602399    -0.10800
C399        C  0.10165214  0.16516275  0.12869463     0.05700
H400        H  0.13237807  0.13654106  0.09587692     0.07600
H401        H  0.19241951  0.11465073  0.09641078     0.11100
H402        H  0.22382683  0.15877627  0.16030074     0.11400
H403        H  0.16426305  0.18108042  0.15957817     0.07700
C404        C  0.07194626  0.14723371  0.14575094    -0.11500
C405        C  0.03089082  0.14876717  0.14636465    -0.10700
C406        C  0.01836159  0.16832312  0.12992743    -0.01700
C407        C  0.04848302  0.18710377  0.11296248    -0.11800
C408        C  0.08970608  0.18533576  0.11231450    -0.10200
H409        H  0.07977474  0.13066169  0.15840667     0.07700
H410        H  0.00858182  0.13384777  0.15965684     0.11400
H411        H  0.03985597  0.20242774  0.10005541     0.11100
H412        H  0.11212209  0.19949067  0.09900214     0.07700
C413        C  0.54523780  0.14265497  0.09251532    -0.11400
C414        C  0.55953007  0.13109847  0.11108403     0.05700
C415        C  0.53123934  0.12076077  0.12868799    -0.10200
C416        C  0.48996726  0.12254904  0.12770017    -0.11900
C417        C  0.47609868  0.13446544  0.10905829    -0.01600
C418        C  0.50406388  0.14391976  0.09147039    -0.10800
C419        C  0.60462898  0.13169398  0.11186156     0.05700
H420        H  0.54099878  0.11140164  0.14321536     0.07600
H421        H  0.46931991  0.11525617  0.14157134     0.11100
H422        H  0.49497763  0.15384041  0.07691108     0.11400
H423        H  0.56658278  0.15217121  0.07879406     0.07700
C424        C  0.62040470  0.11881390  0.09430381    -0.11500
C425        C  0.66504426  0.12497745  0.09376469    -0.10700
C426        C  0.69489146  0.14334760  0.11092655    -0.01700
C427        C  0.67836215  0.15376164  0.12897298    -0.11800
C428        C  0.63376526  0.14819525  0.12940755    -0.10200
H429        H  0.59850413  0.10469672  0.08072338     0.07700
H430        H  0.67642385  0.11604399  0.07971770     0.11400
H431        H  0.70053121  0.16801478  0.14247940     0.11100
H432        H  0.62298181  0.15875621  0.14314893     0.07700
C433        C  0.01392813  0.81915756  0.10413103    -0.11400
C434        C  0.04082917  0.84335299  0.12151533     0.05700
C435        C  0.01891656  0.83550118  0.14086368    -0.10200
C436        C  0.97187540  0.80403235  0.14291611    -0.11900
C437        C  0.94490650  0.77968659  0.12564438    -0.01600
C438        C  0.96639550  0.78772457  0.10616677    -0.10800
C439        C  0.09103431  0.87819622  0.11978694     0.05700
H440        H  0.03789293  0.85446363  0.15450118     0.07600
H441        H  0.95651556  0.79930567  0.15811548     0.11100
H442        H  0.94657764  0.76953616  0.09254471     0.11400
H443        H  0.02962598  0.82422920  0.08900363     0.07700
C444        C  0.12132878  0.88471985  0.13644273    -0.11500
C445        C  0.16588962  0.92280674  0.13693392    -0.10700
C446        C  0.18188957  0.95444765  0.12048579    -0.01700
C447        C  0.15356005  0.94593412  0.10291528    -0.11800
C448        C  0.10829084  0.90821256  0.10261399    -0.10200
H449        H  0.10992182  0.86147594  0.14960372     0.07700
H450        H  0.18732320  0.92862751  0.15058987     0.11400
H451        H  0.16514184  0.97027139  0.09014460     0.11100
H452        H  0.08600488  0.90438200  0.08954577     0.07700
C453        C  0.60765067  0.45370704  0.13085906    -0.11400
C454        C  0.58810523  0.42475631  0.11348379     0.05700
C455        C  0.61392907  0.43643386  0.09507034    -0.10200
C456        C  0.65782871  0.47551051  0.09401892    -0.11900
C457        C  0.67771771  0.50423494  0.11138680    -0.01600
C458        C  0.65196200  0.49296342  0.12983101    -0.10800
C459        C  0.54215319  0.38134333  0.11447362     0.05700
H460        H  0.60084272  0.41457989  0.08150184     0.07600
H461        H  0.67657711  0.48261955  0.07957702     0.11100
H462        H  0.66619854  0.51419013  0.14352987     0.11400
H463        H  0.58873123  0.44604908  0.14526273     0.07700
C464        C  0.52856413  0.35308635  0.13228255    -0.11500
C465        C  0.48888754  0.30910073  0.13192462    -0.10700
C466        C  0.46211881  0.29228909  0.11370758    -0.01700
C467        C  0.47391356  0.32185628  0.09644025    -0.11800
C468        C  0.51311809  0.36578109  0.09686300    -0.10200
H469        H  0.54997156  0.36375996  0.14613086     0.07700
H470        H  0.48081344  0.28725542  0.14550267     0.11400
H471        H  0.45372924  0.31040687  0.08223906     0.11100
H472        H  0.52147011  0.38702992  0.08307535     0.07700
C473        C  0.78691123  0.86185902  0.14058170    -0.11400
C474        C  0.78987164  0.88183825  0.12101180     0.05700
C475        C  0.78683777  0.85621942  0.10320225    -0.10200
C476        C  0.78357054  0.81270500  0.10501222    -0.11900
C477        C  0.78385978  0.79426986  0.12468258    -0.01600
C478        C  0.78399047  0.81879086  0.14239213    -0.10800
C479        C  0.80053595  0.93076771  0.11964623     0.05700
H480        H  0.78844719  0.87047494  0.08790200     0.07600
H481        H  0.78337290  0.79472676  0.09104096     0.11100
H482        H  0.78403470  0.80570579  0.15779748     0.11400
H483        H  0.78957609  0.88071207  0.15462573     0.07700
C484        C  0.77995385  0.94766636  0.13344727    -0.11500
C485        C  0.79606372  0.99502329  0.13498282    -0.10700
C486        C  0.83294868  0.02670026  0.12265073    -0.01700
C487        C  0.85143161  0.00969434  0.10780763    -0.11800
C488        C  0.83547218  0.96219393  0.10636373    -0.10200
H489        H  0.75248145  0.92432169  0.14364621     0.07700
H490        H  0.78066396  0.00700090  0.14636684     0.11400
H491        H  0.88002956  0.03325557  0.09815554     0.11100
H492        H  0.85239325  0.95037284  0.09572280     0.07700
C493        C  0.88204218  0.47241987  0.09808960    -0.11400
C494        C  0.86722653  0.44146623  0.11493261     0.05700
C495        C  0.84853037  0.45177112  0.13229288    -0.10200
C496        C  0.84185959  0.49014485  0.13217238    -0.11900
C497        C  0.85330081  0.51882275  0.11461423    -0.01600
C498        C  0.87492125  0.51034707  0.09787719    -0.10800
C499        C  0.86738642  0.39678354  0.11351143     0.05700
H500        H  0.83653589  0.42876673  0.14552391     0.07600
H501        H  0.82517955  0.49569577  0.14532496     0.11100
H502        H  0.88492515  0.53216359  0.08422465     0.11400
H503        H  0.89790600  0.46657170  0.08471005     0.07700
C504        C  0.85728286  0.37316863  0.09448573    -0.11500
C505        C  0.85375981  0.32979868  0.09311036    -0.10700
C506        C  0.85987173  0.30827366  0.11074183    -0.01700
C507        C  0.87099276  0.33214014  0.12973465    -0.11800
C508        C  0.87476847  0.37590625  0.13109417    -0.10200
H509        H  0.85027187  0.38734805  0.08067822     0.07700
H510        H  0.84477042  0.31252398  0.07822183     0.11400
H511        H  0.87570635  0.31657262  0.14365124     0.11100
H512        H  0.88303486  0.39317656  0.14596920     0.07700
C513        C  0.37196631  0.52205287  0.87095338    -0.11400
C514        C  0.40546102  0.52935530  0.88624836     0.05700
C515        C  0.39424565  0.49513631  0.90152961    -0.10200
C516        C  0.34975481  0.45685708  0.90252486    -0.11900
C517        C  0.31581774  0.45102937  0.88787390    -0.01600
C518        C  0.32780858  0.48307182  0.87164822    -0.10800
C519        C  0.44992575  0.57414997  0.88743456     0.05700
H520        H  0.41939008  0.49846363  0.91315452     0.07600
H521        H  0.34155988  0.43230258  0.91505717     0.11100
H522        H  0.30216666  0.47953027  0.86022109     0.11400
H523        H  0.37875350  0.54759246  0.85906341     0.07700
C524        C  0.47088702  0.60040943  0.86950640    -0.11500
C525        C  0.50960904  0.64467687  0.87106641    -0.10700
C526        C  0.52848242  0.66357598  0.89057189    -0.01700
C527        C  0.50876169  0.63669713  0.90838724    -0.11800
C528        C  0.47001402  0.59276542  0.90685986    -0.10200
H529        H  0.45708489  0.58713657  0.85423882     0.07700
H530        H  0.52390534  0.66459699  0.85703989     0.11400
H531        H  0.52249587  0.65013141  0.92366461     0.11100
H532        H  0.45472147  0.57442002  0.92110502     0.07700
C533        C  0.85743908  0.00024262  0.89793619    -0.11400
C534        C  0.85602658  0.03281890  0.88439832     0.05700
C535        C  0.81928640  0.01741096  0.86998771    -0.10200
C536        C  0.78701869  0.97046570  0.86808910    -0.11900
C537        C  0.79001705  0.93777904  0.88084242    -0.01600
C538        C  0.82455001  0.95324506  0.89627298    -0.10800
C539        C  0.89521881  0.08138733  0.88369898     0.05700
H540        H  0.81624738  0.04150838  0.85968026     0.07600
H541        H  0.76027732  0.95957428  0.85627106     0.11100
H542        H  0.82774035  0.92875306  0.90626498     0.11400
H543        H  0.88540443  0.01060973  0.90906957     0.07700
C544        C  0.92000908  0.10449711  0.90172920    -0.11500
C545        C  0.96061176  0.14759343  0.90036148    -0.10700
C546        C  0.97728261  0.16829372  0.88092075    -0.01700
C547        C  0.95097917  0.14641139  0.86310488    -0.11800
C548        C  0.91067792  0.10364951  0.86445745    -0.10200
H549        H  0.90872176  0.08874113  0.91684322     0.07700
H550        H  0.98006539  0.16357610  0.91438745     0.11400
H551        H  0.96258187  0.16147420  0.84788396     0.11100
H552        H  0.89312424  0.08696985  0.85018104     0.07700
C553        C  0.47557360  0.84305091  0.86976910    -0.11400
C554        C  0.45341049  0.84576158  0.88779613     0.05700
C555        C  0.47239677  0.84440404  0.90720416    -0.10200
C556        C  0.51110066  0.83856577  0.90858535    -0.11900
C557        C  0.53172507  0.83336233  0.89061587    -0.01600
C558        C  0.51413906  0.83673406  0.87115906    -0.10800
C559        C  0.40878949  0.84627631  0.88658631     0.05700
H560        H  0.45612559  0.84559447  0.92147243     0.07600
H561        H  0.52363834  0.83621900  0.92385027     0.11100
H562        H  0.52932584  0.83319070  0.85698141     0.11400
H563        H  0.46263358  0.84492311  0.85454037     0.07700
C564        C  0.39696298  0.86840563  0.90196133    -0.11500
C565        C  0.35250342  0.86297575  0.90257702    -0.10700
C566        C  0.31929988  0.83645957  0.88748998    -0.01700
C567        C  0.33176400  0.81678333  0.87137863    -0.11800
C568        C  0.37584752  0.82122432  0.87103566    -0.10200
H569        H  0.42164965  0.88898743  0.91388044     0.07700
H570        H  0.34372882  0.87873390  0.91509639     0.11400
H571        H  0.30650283  0.79562228  0.85973629     0.11100
H572        H  0.38313738  0.80298058  0.85915383     0.07700
C573        C  0.88112363  0.78047719  0.85991830    -0.11400
C574        C  0.90071754  0.78023300  0.87930966     0.05700
C575        C  0.87650081  0.77850693  0.89739922    -0.10200
C576        C  0.83474757  0.77914536  0.89608617    -0.11900
C577        C  0.81666228  0.78184113  0.87666471    -0.01600
C578        C  0.83971526  0.78135667  0.85862339    -0.10800
C579        C  0.94833045  0.78680471  0.88034347     0.05700
H580        H  0.89037740  0.77779950  0.91256708     0.07600
H581        H  0.81767150  0.77947832  0.91026540     0.11100
H582        H  0.82641999  0.78303239  0.84343679     0.11400
H583        H  0.89898557  0.78251536  0.84565500     0.07700
C584        C  0.96380124  0.76803913  0.86494080    -0.11500
C585        C  0.01079862  0.78224283  0.86316106    -0.10700
C586        C  0.04328185  0.81493206  0.87695975    -0.01700
C587        C  0.02743349  0.83050278  0.89350497    -0.11800
C588        C  0.98042855  0.81676395  0.89512183    -0.10200
H589        H  0.93982136  0.74386100  0.85367337     0.07700
H590        H  0.02190236  0.76889989  0.85049648     0.11400
H591        H  0.05166449  0.85555611  0.90443841     0.11100
H592        H  0.96985246  0.83209196  0.90712633     0.07700
C593        C  0.77066410  0.76855137  0.97828428    -0.11400
C594        C  0.73912321  0.72972836  0.98978815     0.05700
C595        C  0.69246706  0.70601895  0.98341680    -0.10200
C596        C  0.67749149  0.72116527  0.96631686    -0.11900
C597        C  0.70877453  0.76024923  0.95496963    -0.01600
C598        C  0.75569984  0.78350003  0.96099035    -0.10800
C599        C  0.75409061  0.71460685  0.00873793     0.05700
H600        H  0.66711058  0.67630906  0.99198481     0.07600
H601        H  0.64121383  0.70213158  0.96197717     0.11100
H602        H  0.78072780  0.81355291  0.95248867     0.11400
H603        H  0.80696060  0.78726079  0.98259951     0.07700
C604        C  0.78575651  0.74715936  0.02288698    -0.11500
C605        C  0.79762405  0.73288335  0.04129394    -0.10700
C606        C  0.77834929  0.68568948  0.04592622    -0.01700
C607        C  0.74712069  0.65314703  0.03166966    -0.11800
C608        C  0.73519322  0.66740769  0.01332242    -0.10200
H609        H  0.80047346  0.78375719  0.02000138     0.07700
H610        H  0.82167860  0.75885389  0.05196046     0.11400
H611        H  0.73157326  0.61651211  0.03472955     0.11100
H612        H  0.71115103  0.64136837  0.00268342     0.07700
C613        C  0.76191792  0.15562867  0.27404575    -0.11400
C614        C  0.79506581  0.18941763  0.26081817     0.05700
C615        C  0.83549374  0.22568305  0.26968367    -0.10200
C616        C  0.84462739  0.22563967  0.29088873    -0.11900
C617        C  0.81314095  0.18995600  0.30372222    -0.01600
C618        C  0.77088241  0.15597036  0.29536052    -0.10800
C619        C  0.79200814  0.18279575  0.23789562     0.05700
H620        H  0.86198743  0.25195825  0.25999711     0.07600
H621        H  0.87764514  0.25192910  0.29705967     0.11100
H622        H  0.74641995  0.12785749  0.30499654     0.11400
H623        H  0.73027851  0.12745788  0.26771973     0.07700
C624        C  0.77923280  0.13903444  0.22976368    -0.11500
C625        C  0.78704151  0.13400408  0.20894357    -0.10700
C626        C  0.80704095  0.17241457  0.19566851    -0.01700
C627        C  0.81589603  0.21544855  0.20320086    -0.11800
C628        C  0.80876116  0.22068372  0.22420130    -0.10200
H629        H  0.76667452  0.10918544  0.23982298     0.07700
H630        H  0.77972030  0.10039786  0.20345725     0.11400
H631        H  0.83151549  0.24560690  0.19326370     0.11100
H632        H  0.81856375  0.25476992  0.22995894     0.07700
C633        C  0.20502187  0.40929294  0.77651681    -0.11400
C634        C  0.20947744  0.37764974  0.76360018     0.05700
C635        C  0.20748925  0.33850805  0.77285805    -0.10200
C636        C  0.19903579  0.32987213  0.79398145    -0.11900
C637        C  0.19191363  0.35980273  0.80674904    -0.01600
C638        C  0.19660561  0.40059058  0.79796433    -0.10800
C639        C  0.21137772  0.38166946  0.74040580     0.05700
H640        H  0.20977324  0.31277270  0.76358318     0.07600
H641        H  0.19598986  0.29824282  0.80017719     0.11100
H642        H  0.19126082  0.42431422  0.80736811     0.11400
H643        H  0.20672198  0.44001778  0.76994915     0.07700
C644        C  0.18299507  0.39499098  0.72947037    -0.11500
C645        C  0.17603416  0.38768606  0.70796556    -0.10700
C646        C  0.19691685  0.36654263  0.69708243    -0.01700
C647        C  0.22810524  0.35673582  0.70760855    -0.11800
C648        C  0.23591068  0.36498640  0.72892517    -0.10200
H649        H  0.16329880  0.40762166  0.73771942     0.07700
H650        H  0.15129946  0.39490320  0.70019270     0.11400
H651        H  0.24456103  0.34035781  0.69953043     0.11100
H652        H  0.25902807  0.35550579  0.73665963     0.07700
C653        C  0.97315008  0.18659171  0.47925916    -0.11400
C654        C  0.97101368  0.21619969  0.49413538     0.05700
C655        C  0.94042564  0.23319866  0.49062392    -0.10200
C656        C  0.91436405  0.22287513  0.47234171    -0.11900
C657        C  0.91811295  0.19528187  0.45690607    -0.01600
C658        C  0.94709733  0.17638731  0.46076628    -0.10800
C659        C  0.00250237  0.23237777  0.51259617     0.05700
H660        H  0.93722724  0.25531040  0.50194453     0.07600
H661        H  0.89203575  0.23760721  0.47011857     0.11100
H662        H  0.95050975  0.15468147  0.44930006     0.11400
H663        H  0.99636097  0.17290978  0.48153382     0.07700
C664        C  0.01028417  0.20201208  0.52503295    -0.11500
C665        C  0.03860575  0.21822784  0.54287605    -0.10700
C666        C  0.06029187  0.26524831  0.54836267    -0.01700
C667        C  0.05330898  0.29547835  0.53552946    -0.11800
C668        C  0.02477129  0.27929278  0.51801812    -0.10200
H669        H  0.99366079  0.16566765  0.52122555     0.07700
H670        H  0.04354149  0.19408357  0.55234562     0.11400
H671        H  0.06943734  0.33187549  0.53917452     0.11100
H672        H  0.02025110  0.30376118  0.50859454     0.07700
C673        C  0.16308832  0.74090049  0.72409950    -0.11400
C674        C  0.19722455  0.77122682  0.73811081     0.05700
C675        C  0.23567264  0.81112955  0.73036919    -0.10200
C676        C  0.23753916  0.82290394  0.70939749    -0.11900
C677        C  0.20168317  0.79431558  0.69574693    -0.01600
C678        C  0.16556270  0.75217648  0.70299149    -0.10800
C679        C  0.18792699  0.76752749  0.76071519     0.05700
H680        H  0.26201668  0.83538937  0.74087395     0.07600
H681        H  0.26541240  0.85581944  0.70409878     0.11100
H682        H  0.13728824  0.73000907  0.69272521     0.11400
H683        H  0.13291481  0.71016559  0.72975075     0.07700
C684        C  0.14861569  0.76865965  0.76755639    -0.11500
C685        C  0.14383554  0.77618727  0.78842005    -0.10700
C686        C  0.17793774  0.78218636  0.80311298    -0.01700
C687        C  0.21550663  0.77721485  0.79660850    -0.11800
C688        C  0.22080523  0.77058144  0.77546853    -0.10200
H689        H  0.12314825  0.76712566  0.75650191     0.07700
H690        H  0.11441944  0.77972186  0.79289834     0.11400
H691        H  0.24237872  0.78183908  0.80754366     0.11100
H692        H  0.25153856  0.77000418  0.77049658     0.07700
C693        C  0.11993818  0.50569012  0.59689236    -0.11400
C694        C  0.13362779  0.53302925  0.61488099     0.05700
C695        C  0.14453862  0.51610700  0.63283029    -0.10200
C696        C  0.14545146  0.47451337  0.63224678    -0.11900
C697        C  0.13550395  0.44919285  0.61369031    -0.01600
C698        C  0.12091000  0.46434958  0.59629009    -0.10800
C699        C  0.14158717  0.58101576  0.61400629     0.05700
H700        H  0.15530883  0.53647236  0.64690245     0.07600
H701        H  0.15694834  0.46385432  0.64590073     0.11100
H702        H  0.11239195  0.44537809  0.58183379     0.11400
H703        H  0.11042101  0.51737203  0.58295143     0.07700
C704        C  0.16543039  0.60930232  0.59707991    -0.11500
C705        C  0.17487121  0.65491510  0.59608860    -0.10700
C706        C  0.16069933  0.67375594  0.61199427    -0.01700
C707        C  0.13685262  0.64555690  0.62903414    -0.11800
C708        C  0.12749626  0.59962830  0.63005235    -0.10200
H709        H  0.17772085  0.59637174  0.58471150     0.07700
H710        H  0.19384510  0.67559136  0.58285984     0.11400
H711        H  0.12547580  0.65895902  0.64156380     0.11100
H712        H  0.10905964  0.57859345  0.64328898     0.07700
C713        C  0.15414064  0.12527130  0.60632644    -0.11400
C714        C  0.18869498  0.12661455  0.61952818     0.05700
C715        C  0.21074229  0.16320201  0.63371079    -0.10200
C716        C  0.19600627  0.19544708  0.63588886    -0.11900
C717        C  0.15958222  0.19245665  0.62361873    -0.01600
C718        C  0.13985661  0.15810585  0.60828842    -0.10800
C719        C  0.19759005  0.08720518  0.62049018     0.05700
H720        H  0.23822194  0.16581365  0.64375136     0.07600
H721        H  0.21228365  0.22204085  0.64759323     0.11100
H722        H  0.11159553  0.15501351  0.59865612     0.11400
H723        H  0.13623727  0.09733192  0.59536164     0.07700
C724        C  0.20210198  0.07063685  0.63994732    -0.11500
C725        C  0.20557020  0.03086890  0.64150973    -0.10700
C726        C  0.20479062  0.00657070  0.62366764    -0.01700
C727        C  0.20206441  0.02383475  0.60408654    -0.11800
C728        C  0.19818083  0.06373664  0.60251267    -0.10200
H729        H  0.20086603  0.08723995  0.65412399     0.07700
H730        H  0.20765075  0.01840654  0.65681187     0.11400
H731        H  0.20101541  0.00549748  0.59009597     0.11100
H732        H  0.19489202  0.07579608  0.58730614     0.07700
C733        C  0.41953800  0.17223130  0.27649272    -0.11400
C734        C  0.39577902  0.18504394  0.26212380     0.05700
C735        C  0.36410081  0.19775003  0.26958436    -0.10200
C736        C  0.35380440  0.19440158  0.29068971    -0.11900
C737        C  0.37551205  0.17905257  0.30488775    -0.01600
C738        C  0.40981556  0.16971686  0.29774886    -0.10800
C739        C  0.39880525  0.17938675  0.23940636     0.05700
H740        H  0.34480461  0.20719573  0.25893616     0.07600
H741        H  0.32712602  0.20167093  0.29580160     0.11100
H742        H  0.42665847  0.15732052  0.30837030     0.11400
H743        H  0.44420661  0.16235857  0.27118106     0.07700
C744        C  0.39878586  0.21163428  0.22523088    -0.11500
C745        C  0.39198741  0.20161085  0.20397277    -0.10700
C746        C  0.38479473  0.15909327  0.19658838    -0.01700
C747        C  0.38731348  0.12796059  0.21052839    -0.11800
C748        C  0.39479271  0.13820825  0.23170372    -0.10200
H749        H  0.40175177  0.24360934  0.23072621     0.07700
H750        H  0.38900164  0.22556683  0.19353459     0.11400
H751        H  0.38076235  0.09451286  0.20517594     0.11100
H752        H  0.39385959  0.11234383  0.24222051     0.07700
C753        C  0.20744824  0.97231404  0.52446692    -0.11400
C754        C  0.23714859  0.97038718  0.50963234     0.05700
C755        C  0.25363463  0.93944109  0.51251386    -0.10200
C756        C  0.24106097  0.91107349  0.52996182    -0.11900
C757        C  0.21216573  0.91335518  0.54521581    -0.01600
C758        C  0.19532185  0.94425849  0.54225028    -0.10800
C759        C  0.25275447  0.00143115  0.49143249     0.05700
H760        H  0.27647315  0.93734229  0.50122192     0.07600
H761        H  0.25488096  0.88788413  0.53164563     0.11100
H762        H  0.17327924  0.94708350  0.55372763     0.11400
H763        H  0.19466921  0.99631331  0.52253319     0.07700
C764        C  0.22099914  0.00028561  0.47661745    -0.11500
C765        C  0.23675610  0.02694849  0.45849659    -0.10700
C766        C  0.28451920  0.05546544  0.45508319    -0.01700
C767        C  0.31597608  0.05737775  0.47032502    -0.11800
C768        C  0.30027285  0.03043749  0.48819878    -0.10200
H769        H  0.18418001  0.97773005  0.47878736     0.07700
H770        H  0.21167629  0.02468817  0.44705191     0.11400
H771        H  0.35296707  0.07913942  0.46831126     0.11100
H772        H  0.32530676  0.03186689  0.49947577     0.07700
C773        C  0.07730279  0.18762785  0.40139690    -0.11400
C774        C  0.10152351  0.18729530  0.38365906     0.05700
C775        C  0.08462151  0.19014485  0.36399407    -0.10200
C776        C  0.04389177  0.19193714  0.36199696    -0.11900
C777        C  0.01896938  0.19109578  0.37959540    -0.01600
C778        C  0.03642797  0.18988608  0.39938237    -0.10800
C779        C  0.14205289  0.18014212  0.38507250     0.05700
H780        H  0.10182195  0.18897306  0.35001123     0.07600
H781        H  0.03126034  0.19289683  0.34655701     0.11100
H782        H  0.01757806  0.18882193  0.41318698     0.11400
H783        H  0.08958276  0.18543986  0.41674389     0.07700
C784        C  0.17897544  0.20294100  0.37115726    -0.11500
C785        C  0.21192563  0.18901510  0.36905385    -0.10700
C786        C  0.20914646  0.15264024  0.38112223    -0.01700
C787        C  0.17475490  0.13257829  0.39635616    -0.11800
C788        C  0.14125508  0.14604368  0.39824012    -0.10200
H789        H  0.18105117  0.23006386  0.36114520     0.07700
H790        H  0.23857407  0.20550784  0.35742450     0.11400
H791        H  0.17186355  0.10435021  0.40581738     0.11100
H792        H  0.11306354  0.12763159  0.40899539     0.07700
C793        C  0.61114061  0.11441774  0.36701159    -0.11400
C794        C  0.58699500  0.11374705  0.38501212     0.05700
C795        C  0.61029296  0.12249635  0.40422157    -0.10200
C796        C  0.65634468  0.13293281  0.40538695    -0.11900
C797        C  0.68111206  0.13568727  0.38737725    -0.01600
C798        C  0.65772724  0.12547775  0.36817014    -0.10800
C799        C  0.53958437  0.10844479  0.38393784     0.05700
H800        H  0.59386544  0.12353241  0.41845792     0.07600
H801        H  0.67294890  0.14032119  0.42049889     0.11100
H802        H  0.67564912  0.12698478  0.35398988     0.11400
H803        H  0.59438353  0.10711417  0.35195403     0.07700
C804        C  0.52593868  0.12572803  0.36690335    -0.11500
C805        C  0.48601384  0.12975807  0.36787193    -0.10700
C806        C  0.45946504  0.11745755  0.38602772    -0.01700
C807        C  0.47054469  0.09630179  0.40223833    -0.11800
C808        C  0.50965966  0.09118033  0.40107377    -0.10200
H809        H  0.54767645  0.13933661  0.35338307     0.07700
H810        H  0.47809287  0.14592484  0.35507316     0.11400
H811        H  0.45006411  0.08552181  0.41625443     0.11100
H812        H  0.51750373  0.07560296  0.41411325     0.07700
C813        C  0.77746139  0.55629530  0.22692274    -0.11400
C814        C  0.81329363  0.58705139  0.24026793     0.05700
C815        C  0.85151862  0.62569278  0.23152614    -0.10200
C816        C  0.85285969  0.63488409  0.21040373    -0.11900
C817        C  0.81602614  0.60590805  0.19725287    -0.01600
C818        C  0.77892921  0.56555123  0.20552969    -0.10800
C819        C  0.80922577  0.58327393  0.26333202     0.05700
H820        H  0.87935351  0.65080365  0.24116661     0.07600
H821        H  0.88206016  0.66615923  0.20450124     0.11100
H822        H  0.74998641  0.54269405  0.19573787     0.11400
H823        H  0.74763914  0.52601972  0.23310802     0.07700
C824        C  0.76679499  0.57098905  0.27297686    -0.11500
C825        C  0.76545268  0.57970833  0.29413228    -0.10700
C826        C  0.80647507  0.60121556  0.30586260    -0.01700
C827        C  0.84809688  0.60967174  0.29679920    -0.11800
C828        C  0.84930597  0.59990003  0.27583961    -0.10200
H829        H  0.73529481  0.55838508  0.26389972     0.07700
H830        H  0.73308526  0.57337789  0.30087227     0.11400
H831        H  0.88011885  0.62623401  0.30565421     0.11100
H832        H  0.88233630  0.60845220  0.26910363     0.07700
C833        C  0.80226898  0.87762352  0.35478704    -0.11400
C834        C  0.80132525  0.89776352  0.37375285     0.05700
C835        C  0.79494095  0.87211806  0.39211595    -0.10200
C836        C  0.79175580  0.82855588  0.39153743    -0.11900
C837        C  0.79474075  0.80960974  0.37257756    -0.01600
C838        C  0.79886733  0.83426123  0.35421217    -0.10800
C839        C  0.81058366  0.94648403  0.37423563     0.05700
H840        H  0.79321449  0.88599039  0.40700600     0.07600
H841        H  0.78862187  0.81050907  0.40597437     0.11100
H842        H  0.80107240  0.82072291  0.33929446     0.11400
H843        H  0.80788655  0.89617994  0.34031734     0.07700
C844        C  0.83607911  0.97617572  0.39064748    -0.11500
C845        C  0.84982539  0.02318428  0.38987022    -0.10700
C846        C  0.83897151  0.04195055  0.37255569    -0.01700
C847        C  0.81199776  0.01211989  0.35651572    -0.11800
C848        C  0.79757035  0.96496895  0.35744860    -0.10200
H849        H  0.84741101  0.96369940  0.40371088     0.07700
H850        H  0.87072187  0.04520054  0.40247425     0.11400
H851        H  0.80259720  0.02533206  0.34305316     0.11100
H852        H  0.77689905  0.94318958  0.34475702     0.07700
C853        C  0.85206543  0.46598828  0.36932945    -0.11400
C854        C  0.84166810  0.43610088  0.38641905     0.05700
C855        C  0.82401675  0.44505035  0.40444274    -0.10200
C856        C  0.81807774  0.48340679  0.40566996    -0.11900
C857        C  0.82913497  0.51384942  0.38882439    -0.01600
C858        C  0.84576210  0.50451912  0.37050679    -0.10800
C859        C  0.84800394  0.39501626  0.38580495     0.05700
H860        H  0.81409899  0.42191670  0.41762820     0.07600
H861        H  0.80404662  0.48874171  0.41981902     0.11100
H862        H  0.85408549  0.52705446  0.35716156     0.11400
H863        H  0.86554699  0.45989881  0.35519259     0.07700
C864        C  0.83510696  0.36625327  0.36826775    -0.11500
C865        C  0.83435788  0.32387832  0.36918390    -0.10700
C866        C  0.84616663  0.30946350  0.38769493    -0.01700
C867        C  0.86218070  0.33978436  0.40465973    -0.11800
C868        C  0.86339659  0.38211482  0.40366994    -0.10200
H869        H  0.82310019  0.37521192  0.35426774     0.07700
H870        H  0.82192945  0.30127344  0.35582435     0.11400
H871        H  0.87226051  0.33008675  0.41902171     0.11100
H872        H  0.87489917  0.40413491  0.41723129     0.07700
C873        C  0.11469447  0.90507028  0.39390618    -0.11400
C874        C  0.08760193  0.88614005  0.37590172     0.05700
C875        C  0.10464032  0.90878283  0.35685210    -0.10200
C876        C  0.14671921  0.94990022  0.35587483    -0.11900
C877        C  0.17307354  0.96966706  0.37390418    -0.01600
C878        C  0.15709547  0.94640830  0.39291073    -0.10800
C879        C  0.04019207  0.84523699  0.37686663     0.05700
H880        H  0.08453745  0.89587872  0.34270854     0.07600
H881        H  0.15812069  0.96678433  0.34096933     0.11100
H882        H  0.17662939  0.96085610  0.40708763     0.11400
H883        H  0.10284011  0.88830684  0.40879720     0.07700
C884        C  0.02273454  0.81403755  0.36019665    -0.11500
C885        C  0.97588318  0.78084913  0.35913114    -0.10700
C886        C  0.94538191  0.77745325  0.37487844    -0.01700
C887        C  0.96338612  0.80609161  0.39236512    -0.11800
C888        C  0.01030523  0.83979850  0.39331151    -0.10200
H889        H  0.04499012  0.81628404  0.34755499     0.07700
H890        H  0.96328019  0.75874959  0.34560890     0.11400
H891        H  0.94077452  0.80420904  0.40477997     0.11100
H892        H  0.02243240  0.86330281  0.40634775     0.07700
C893        C  0.59864341  0.46189198  0.40725073    -0.11400
C894        C  0.58577710  0.43333463  0.38967286     0.05700
C895        C  0.61363369  0.44917046  0.37191656    -0.10200
C896        C  0.65482666  0.49162738  0.37210228    -0.11900
C897        C  0.66902506  0.51902948  0.39008263    -0.01600
C898        C  0.63978571  0.50429697  0.40744945    -0.10800
C899        C  0.54545869  0.38584334  0.39037532     0.05700
H900        H  0.60480987  0.42761398  0.35824934     0.07600
H901        H  0.67691877  0.50160839  0.35860491     0.11100
H902        H  0.64969550  0.52466337  0.42152797     0.11400
H903        H  0.57748973  0.45078297  0.42105861     0.07700
C904        C  0.53942917  0.35734277  0.40752691    -0.11500
C905        C  0.50303454  0.31184811  0.40792310    -0.10700
C906        C  0.47168861  0.29361730  0.39116697    -0.01700
C907        C  0.47749426  0.32221100  0.37404279    -0.11800
C908        C  0.51405845  0.36790377  0.37365934    -0.10200
H909        H  0.56358457  0.36992791  0.42045514     0.07700
H910        H  0.49994891  0.29068443  0.42127472     0.11400
H911        H  0.45376290  0.30931312  0.36097937     0.11100
H912        H  0.51780721  0.38929073  0.36030930     0.07700
C913        C  0.60444236  0.82352008  0.72687046    -0.11400
C914        C  0.59754691  0.78733600  0.74036139     0.05700
C915        C  0.59599863  0.74775221  0.73193917    -0.10200
C916        C  0.60478508  0.74601141  0.71086747    -0.11900
C917        C  0.61487503  0.78358941  0.69786980    -0.01600
C918        C  0.61338313  0.82177525  0.70582926    -0.10800
C919        C  0.59969036  0.79382659  0.76327546     0.05700
H920        H  0.59158308  0.71963284  0.74189249     0.07600
H921        H  0.60681749  0.71668998  0.70501911     0.11100
H922        H  0.62182187  0.85135773  0.69603081     0.11400
H923        H  0.60543150  0.85428512  0.73281398     0.07700
C924        C  0.63328433  0.83610985  0.77179198    -0.11500
C925        C  0.64276843  0.84026945  0.79302454    -0.10700
C926        C  0.61874374  0.80244326  0.80636866    -0.01700
C927        C  0.58240201  0.76122344  0.79826023    -0.11800
C928        C  0.57314987  0.75684589  0.77682962    -0.10200
H929        H  0.65478797  0.86516328  0.76189178     0.07700
H930        H  0.67088946  0.87249700  0.79887539     0.11400
H931        H  0.56352377  0.73146944  0.80820671     0.11100
H932        H  0.54671905  0.72395770  0.77074786     0.07700
C933        C  0.37275663  0.51584281  0.59442675    -0.11400
C934        C  0.39853635  0.52736546  0.61304302     0.05700
C935        C  0.37732902  0.50061127  0.63082166    -0.10200
C936        C  0.33154757  0.46390619  0.63000211    -0.11900
C937        C  0.30598958  0.45271706  0.61133769    -0.01600
C938        C  0.32744229  0.47895228  0.59355261    -0.10800
C939        C  0.44626142  0.56846594  0.61383714     0.05700
H940        H  0.39601593  0.50791374  0.64540195     0.07600
H941        H  0.31614067  0.44440875  0.64401346     0.11100
H942        H  0.30880758  0.47177635  0.57894802     0.11400
H943        H  0.38696039  0.53616160  0.58051401     0.07700
C944        C  0.47452501  0.58220481  0.59611146    -0.11500
C945        C  0.51579318  0.62443255  0.59559348    -0.10700
C946        C  0.53063214  0.65360935  0.61295911    -0.01700
C947        C  0.50461273  0.63834688  0.63127757    -0.11800
C948        C  0.46271622  0.59643286  0.63167290    -0.10200
H949        H  0.46415960  0.56097877  0.58231444     0.07700
H950        H  0.53538274  0.63493607  0.58132879     0.11400
H951        H  0.51505671  0.66015984  0.64490860     0.11100
H952        H  0.44211799  0.58740661  0.64561207     0.07700
C953        C  0.85141119  0.99411939  0.61131398    -0.11400
C954        C  0.85780701  0.02310597  0.62826959     0.05700
C955        C  0.82797041  0.00477708  0.64532243    -0.10200
C956        C  0.79485642  0.95796757  0.64609581    -0.11900
C957        C  0.79040944  0.92833235  0.62974241    -0.01600
C958        C  0.81793648  0.94720903  0.61201720    -0.10800
C959        C  0.89808413  0.07081121  0.62916994     0.05700
H960        H  0.83118823  0.02641239  0.65840848     0.07600
H961        H  0.77363882  0.94472513  0.65981810     0.11100
H962        H  0.81525944  0.92531809  0.59912559     0.11400
H963        H  0.87392428  0.00707138  0.59798233     0.07700
C964        C  0.92337370  0.08706968  0.64775377    -0.11500
C965        C  0.96319746  0.13029119  0.64863857    -0.10700
C966        C  0.97911699  0.15861379  0.63094098    -0.01700
C967        C  0.95331637  0.14298477  0.61241060    -0.11800
C968        C  0.91325519  0.09942458  0.61151999    -0.10200
H969        H  0.91334120  0.06565532  0.66153054     0.07700
H970        H  0.98218628  0.14097793  0.66316712     0.11400
H971        H  0.96476725  0.16380889  0.59846594     0.11100
H972        H  0.89439129  0.08796314  0.59699411     0.07700
C973        C  0.47719408  0.83586321  0.63350343    -0.11400
C974        C  0.45341326  0.83537315  0.61522535     0.05700
C975        C  0.46845979  0.82720747  0.59624777    -0.10200
C976        C  0.50594381  0.81945801  0.59548689    -0.11900
C977        C  0.52956255  0.81939679  0.61369888    -0.01600
C978        C  0.51490948  0.82797995  0.63275398    -0.10800
C979        C  0.41142671  0.84057347  0.61574911     0.05700
H980        H  0.45034078  0.82539273  0.58193676     0.07600
H981        H  0.51572449  0.81249194  0.58052942     0.11100
H982        H  0.53218477  0.82807128  0.64708777     0.11400
H983        H  0.46656270  0.84221824  0.64838083     0.07700
C984        C  0.37794514  0.81864302  0.63123223    -0.11500
C985        C  0.33560829  0.81801208  0.63011079    -0.10700
C986        C  0.32553935  0.83883502  0.61336640    -0.01700
C987        C  0.35991917  0.86294937  0.59847723    -0.11800
C988        C  0.40250601  0.86406372  0.59973906    -0.10200
H989        H  0.38338650  0.79979330  0.64362897     0.07700
H990        H  0.30967472  0.79879533  0.64172580     0.11400
H991        H  0.35333781  0.87968553  0.58549211     0.11100
H992        H  0.42796495  0.88214980  0.58780323     0.07700
C993        C  0.88324924  0.77095383  0.64556016    -0.11400
C994        C  0.91156386  0.78815659  0.62793150     0.05700
C995        C  0.89290425  0.79708822  0.60991081    -0.10200
C996        C  0.84822297  0.79135088  0.60992653    -0.11900
C997        C  0.82178260  0.77763245  0.62808625    -0.01600
C998        C  0.83922452  0.76640645  0.64571432    -0.10800
C999        C  0.96115397  0.79986366  0.62889089     0.05700
H1000       H  0.91353781  0.81086893  0.59608541     0.07600
H1001       H  0.83561564  0.80059547  0.59619018     0.11100
H1002       H  0.81920891  0.75528147  0.65985795     0.11400
H1003       H  0.89542892  0.76206425  0.65951097     0.07700
C1004       C  0.98636114  0.81518640  0.64760963    -0.11500
C1005       C  0.03337544  0.82885977  0.64843384    -0.10700
C1006       C  0.05694900  0.82870927  0.63049089    -0.01700
C1007       C  0.03203729  0.81309445  0.61179511    -0.11800
C1008       C  0.98455202  0.79829218  0.61105576    -0.10200
H1009       H  0.97036025  0.81827211  0.66159663     0.07700
H1010       H  0.05170841  0.84128793  0.66303971     0.11400
H1011       H  0.04927949  0.81236544  0.59774532     0.11100
H1012       H  0.96634757  0.78588324  0.59644717     0.07700
C1013       C  0.79718979  0.76850415  0.47821938    -0.11400
C1014       C  0.76378785  0.73700654  0.49199719     0.05700
C1015       C  0.74212613  0.68973841  0.48759226    -0.10200
C1016       C  0.75279214  0.67407546  0.46962345    -0.11900
C1017       C  0.78504682  0.70529802  0.45533851    -0.01600
C1018       C  0.80748681  0.75279111  0.45989546    -0.10800
C1019       C  0.74897984  0.75245199  0.51045677     0.05700
H1020       H  0.71648978  0.66480938  0.49805572     0.07600
H1021       H  0.73484004  0.63726312  0.46675112     0.11100
H1022       H  0.83262154  0.77767338  0.44927378     0.11400
H1023       H  0.81419813  0.80518780  0.48133744     0.07700
C1024       C  0.78054257  0.77905779  0.52610689    -0.11500
C1025       C  0.76467996  0.78876366  0.54451019    -0.10700
C1026       C  0.71705698  0.77226392  0.54739189    -0.01700
C1027       C  0.68604538  0.74725649  0.53126143    -0.11800
C1028       C  0.70178199  0.73731356  0.51310731    -0.10200
H1029       H  0.81710295  0.79080053  0.52440320     0.07700
H1030       H  0.78944641  0.80813349  0.55663239     0.11400
H1031       H  0.64923129  0.73437150  0.53280278     0.11100
H1032       H  0.67687194  0.71700629  0.50118157     0.07700
loop_ 
_geom_bond_atom_site_label_1 
_geom_bond_atom_site_label_2 
_geom_bond_distance 
_geom_bond_site_symmetry_2 
_ccdc_geom_bond_type 
O1           Ni7   1.927       .  S
O1           C22   1.272       .  A
O2          Ni25   1.908       .  S
O2           C11   1.266       .  A
O3           Ni7   1.904       .  S
O3          Ni25   1.907       .  S
O3          Ni19   1.907       .  S
O3           H26   0.966       .  S
C4           O21   1.270       .  A
C4           O13   1.272       .  A
C4          C997   1.474       .  S
O5          Ni24   1.924       .  S
O5           C11   1.269       .  A
O6          Ni24   1.906       .  S
O6            C8   1.270       .  A
Ni7          O10   1.919       .  S
Ni7          O12   1.907       .  S
C8           O18   1.275       .  A
C8          C957   1.483       .  S
O9          Ni25   1.928       .  S
O9           C15   1.278       .  A
O10          C15   1.277       .  A
C11         C917   1.466       .  S
O12          C14   1.269       .  A
O13         Ni24   1.923       .  S
C14          O20   1.271       .  A
C14         C946   1.483       .  S
C15         C977   1.488       .  S
H16          O17   0.966       .  S
O17         Ni25   1.923       .  S
O17         Ni19   1.922       .  S
O17         Ni24   1.915       .  S
O18         Ni19   1.939       .  S
Ni19         O23   1.914       .  S
Ni19         O21   1.910       .  S
O20         Ni25   1.927       .  S
C22          O23   1.268       .  A
C22        C1026   1.485       .  S
O27         Ni33   1.922       .  S
O27          C48   1.270       .  A
O28         Ni51   1.909       .  S
O28          C37   1.264       .  A
O29         Ni33   1.910       .  S
O29         Ni51   1.914       .  S
O29         Ni45   1.917       .  S
O29          H52   0.966       .  S
C30          O47   1.274       .  A
C30          O39   1.275       .  A
C30         C837   1.487       .  S
O31         Ni50   1.931       .  S
O31          C37   1.270       .  A
O32         Ni50   1.900       .  S
O32          C34   1.268       .  A
Ni33         O36   1.921       .  S
Ni33         O38   1.899       .  S
C34          O44   1.275       .  A
C34         C886   1.481       .  S
O35         Ni51   1.913       .  S
O35          C41   1.272       .  A
O36          C41   1.275       .  A
C37         C826   1.470       .  S
O38          C40   1.268       .  A
O39         Ni50   1.926       .  S
C40          O46   1.274       .  A
C40         C897   1.481       .  S
C41         C857   1.482       .  S
H42          O43   0.965       .  S
O43         Ni51   1.915       .  S
O43         Ni45   1.923       .  S
O43         Ni50   1.917       .  S
O44         Ni45   1.940       .  S
Ni45         O49   1.922       .  S
Ni45         O47   1.919       .  S
O46         Ni51   1.933       .  S
C48          O49   1.270       .  A
C48        C1017   1.487       .  S
O53         Ni59   1.923       .  S
O53          C74   1.269       .  A
O54         Ni77   1.914       .  S
O54          C63   1.268       .  A
O55         Ni59   1.910       .  S
O55         Ni77   1.915       .  S
O55         Ni71   1.911       .  S
O55          H78   0.966       .  S
C56          O73   1.272       .  A
C56          O65   1.277       .  A
C56         C877   1.481   1_545  S
O57         Ni76   1.928       .  S
O57          C63   1.270       .  A
O58         Ni76   1.901       .  S
O58          C60   1.267       .  A
Ni59         O62   1.916       .  S
Ni59         O64   1.902       .  S
C60          O70   1.271       .  A
C60         C786   1.473       .  S
O61         Ni77   1.927       .  S
O61          C67   1.278       .  A
O62          C67   1.275       .  A
C63         C737   1.478       .  S
O64          C66   1.268       .  A
O65         Ni76   1.933       .  S
C66          O72   1.271       .  A
C66         C806   1.479       .  S
C67         C906   1.484       .  S
H68          O69   0.966       .  S
O69         Ni77   1.914       .  S
O69         Ni71   1.915       .  S
O69         Ni76   1.912       .  S
O70         Ni71   1.933       .  S
Ni71         O75   1.910       .  S
Ni71         O73   1.907       .  S
O72         Ni77   1.928       .  S
C74          O75   1.266       .  A
C74         C766   1.482       .  S
O79         Ni85   1.926       .  S
O79         C100   1.272       .  A
O80        Ni103   1.912       .  S
O80          C89   1.266       .  A
O81         Ni85   1.912       .  S
O81        Ni103   1.908       .  S
O81         Ni97   1.905       .  S
O81         H104   0.966       .  S
C82          O99   1.266       .  A
C82          O91   1.268       .  A
C82         C726   1.477   1_565  S
O83        Ni102   1.917       .  S
O83          C89   1.268       .  A
O84        Ni102   1.902       .  S
O84          C86   1.275       .  A
Ni85         O88   1.932       .  S
Ni85         O90   1.906       .  S
C86          O96   1.284       .  A
C86        C1006   1.481       .  S
O87        Ni103   1.916       .  S
O87          C93   1.274       .  A
O88          C93   1.277       .  A
C89         C677   1.471       .  S
O90          C92   1.268       .  A
O91        Ni102   1.919       .  S
C92          O98   1.273       .  A
C92         C986   1.482       .  S
C93         C706   1.488       .  S
H94          O95   0.971       .  S
O95        Ni103   1.937       .  S
O95         Ni97   1.920       .  S
O95        Ni102   1.919       .  S
O96         Ni97   1.956       .  S
Ni97        O101   1.916       .  S
Ni97         O99   1.911       .  S
O98        Ni103   1.933       .  S
C100        O101   1.270       .  A
C100        C757   1.488       .  S
O105       Ni111   1.934       .  S
O105        C126   1.273       .  A
O106       Ni129   1.920       .  S
O106        C115   1.268       .  A
O107       Ni111   1.908       .  S
O107       Ni129   1.917       .  S
O107       Ni123   1.916       .  S
O107        H130   0.966       .  S
C108        O125   1.274       .  A
C108        O117   1.277       .  A
C108        C966   1.485   1_455  S
O109       Ni128   1.934       .  S
O109        C115   1.271       .  A
O110       Ni128   1.903       .  S
O110        C112   1.268       .  A
Ni111       O114   1.927       .  S
Ni111       O116   1.905       .  S
C112        O122   1.272       .  A
C112        C717   1.476       .  S
O113       Ni129   1.921       .  S
O113        C119   1.276       .  A
O114        C119   1.278       .  A
C115        C646   1.478       .  S
O116        C118   1.270       .  A
O117       Ni128   1.930       .  S
C118        O124   1.274       .  A
C118        C697   1.485       .  S
C119        C937   1.488       .  S
H120        O121   0.967       .  S
O121       Ni129   1.912       .  S
O121       Ni123   1.920       .  S
O121       Ni128   1.914       .  S
O122       Ni123   1.934       .  S
Ni123       O127   1.920       .  S
Ni123       O125   1.914       .  S
O124       Ni129   1.934       .  S
C126        O127   1.269       .  A
C126        C666   1.490       .  S
O131       Ni137   1.933       .  S
O131        C152   1.273       .  A
O132       Ni155   1.916       .  S
O132        C141   1.268       .  A
O133       Ni137   1.906       .  S
O133       Ni155   1.908       .  S
O133       Ni149   1.899       .  S
O133        H156   0.966       .  S
C134        O151   1.266       .  A
C134        O143   1.270       .  A
C134        C777   1.475   1_655  S
O135       Ni154   1.918       .  S
O135        C141   1.269       .  A
O136       Ni154   1.912       .  S
O136        C138   1.275       .  A
Ni137       O140   1.922       .  S
Ni137       O142   1.906       .  S
C138        O148   1.281       .  A
C138        C846   1.486       .  S
O139       Ni155   1.924       .  S
O139        C145   1.277       .  A
O140        C145   1.277       .  A
C141        C617   1.472       .  S
O142        C144   1.269       .  A
O143       Ni154   1.924       .  S
C144        O150   1.271       .  A
C144        C866   1.483       .  S
C145        C797   1.488       .  S
H146        O147   0.966       .  S
O147       Ni155   1.937       .  S
O147       Ni149   1.921       .  S
O147       Ni154   1.916       .  S
O148       Ni149   1.951       .  S
Ni149       O153   1.918       .  S
Ni149       O151   1.908       .  S
O150       Ni155   1.929       .  S
C152        O153   1.269       .  A
C152        C657   1.491       .  S
O157       Ni163   1.928       .  S
O157        C178   1.272       .  A
O158       Ni181   1.909       .  S
O158        C167   1.267       .  A
O159       Ni163   1.904       .  S
O159       Ni181   1.912       .  S
O159       Ni175   1.911       .  S
O159        H182   0.966       .  S
C160        O177   1.279       .  A
C160        O169   1.279       .  A
C160        C557   1.486       .  S
O161       Ni180   1.939       .  S
O161        C167   1.274       .  A
O162       Ni180   1.906       .  S
O162        C164   1.270       .  A
Ni163       O166   1.935       .  S
Ni163       O168   1.903       .  S
C164        O174   1.273       .  A
C164        C526   1.482       .  S
O165       Ni181   1.903       .  S
O165        C171   1.271       .  A
O166        C171   1.278       .  A
C167        C597   1.486       .  S
O168        C170   1.267       .  A
O169       Ni180   1.923       .  S
C170        O176   1.274       .  A
C170        C537   1.481       .  S
C171        C577   1.478       .  S
H172        O173   0.966       .  S
O173       Ni181   1.906       .  S
O173       Ni175   1.910       .  S
O173       Ni180   1.902       .  S
O174       Ni175   1.927       .  S
Ni175       O179   1.920       .  S
Ni175       O177   1.925       .  S
O176       Ni181   1.943       .  S
C178        O179   1.270       .  A
C178        C926   1.480       .  S
O183       Ni189   1.925       .  S
O183        C204   1.272       .  A
O184       Ni207   1.907       .  S
O184        C193   1.269       .  A
O185       Ni189   1.902       .  S
O185       Ni207   1.910       .  S
O185       Ni201   1.921       .  S
O185        H208   0.967       .  S
C186        O203   1.283       .  A
C186        O195   1.279       .  A
C186        C497   1.488       .  S
O187       Ni206   1.936       .  S
O187        C193   1.274       .  A
O188       Ni206   1.910       .  S
O188        C190   1.271       .  A
Ni189       O192   1.927       .  S
Ni189       O194   1.901       .  S
C190        O200   1.275       .  A
C190        C457   1.491       .  S
O191       Ni207   1.924       .  S
O191        C197   1.276       .  A
O192        C197   1.277       .  A
C193        C606   1.485       .  S
O194        C196   1.268       .  A
O195       Ni206   1.921       .  S
C196        O202   1.273       .  A
C196        C437   1.486       .  S
C197        C477   1.490       .  S
H198        O199   0.966       .  S
O199       Ni207   1.910       .  S
O199       Ni201   1.902       .  S
O199       Ni206   1.893       .  S
O200       Ni201   1.936       .  S
Ni201       O205   1.922       .  S
Ni201       O203   1.939       .  S
O202       Ni207   1.938       .  S
C204        O205   1.271       .  A
C204        C817   1.481       .  S
O209       Ni215   1.917       .  S
O209        C230   1.269       .  A
O210       Ni233   1.916       .  S
O210        C219   1.269       .  A
O211       Ni215   1.914       .  S
O211       Ni233   1.922       .  S
O211       Ni227   1.938       .  S
O211        H234   0.966       .  S
C212        O229   1.280       .  A
C212        O221   1.278       .  A
C212        C466   1.489       .  S
O213       Ni232   1.938       .  S
O213        C219   1.274       .  A
O214       Ni232   1.905       .  S
O214        C216   1.271       .  A
Ni215       O218   1.926       .  S
Ni215       O220   1.906       .  S
C216        O226   1.273       .  A
C216        C417   1.484       .  S
O217       Ni233   1.911       .  S
O217        C223   1.268   1_545  A
O218        C223   1.271   1_545  A
C219        C377   1.492       .  S
O220        C222   1.273       .  A
O221       Ni232   1.923       .  S
C222        O228   1.278       .  A
C222        C397   1.480       .  S
C223        C446   1.473       .  S
H224        O225   0.966       .  S
O225       Ni233   1.903       .  S
O225       Ni227   1.906       .  S
O225       Ni232   1.899       .  S
O226       Ni227   1.928       .  S
Ni227       O231   1.919       .  S
Ni227       O229   1.934       .  S
O228       Ni233   1.941       .  S
C230        O231   1.271       .  A
C230        C746   1.472       .  S
O235       Ni241   1.921       .  S
O235        C256   1.270       .  A
O236       Ni259   1.919       .  S
O236        C245   1.268       .  A
O237       Ni241   1.913       .  S
O237       Ni259   1.921       .  S
O237       Ni253   1.916       .  S
O237        H260   0.965       .  S
C238        O255   1.274       .  A
C238        O247   1.276       .  A
C238        C337   1.478       .  S
O239       Ni258   1.935       .  S
O239        C245   1.272       .  A
O240       Ni258   1.905       .  S
O240        C242   1.269       .  A
Ni241       O244   1.928       .  S
Ni241       O246   1.901       .  S
C242        O252   1.274       .  A
C242        C566   1.475       .  S
O243       Ni259   1.902       .  S
O243        C249   1.268       .  A
O244        C249   1.274       .  A
C245        C386   1.493       .  S
O246        C248   1.268       .  A
O247       Ni258   1.922       .  S
C248        O254   1.275       .  A
C248        C586   1.478       .  S
C249        C357   1.477       .  S
H250        O251   0.966       .  S
O251       Ni259   1.906       .  S
O251       Ni253   1.921       .  S
O251       Ni258   1.908       .  S
O252       Ni253   1.928       .  S
Ni253       O257   1.928       .  S
Ni253       O255   1.915       .  S
O254       Ni259   1.943       .  S
C256        O257   1.272       .  A
C256        C686   1.487       .  S
O261       Ni267   1.921       .  S
O261        C282   1.270       .  A
O262       Ni285   1.911       .  S
O262        C271   1.268       .  A
O263       Ni267   1.902       .  S
O263       Ni285   1.918       .  S
O263       Ni279   1.916       .  S
O263        H286   0.966       .  S
C264        O281   1.278       .  A
C264        O273   1.278       .  A
C264        C517   1.477       .  S
O265       Ni284   1.938       .  S
O265        C271   1.274       .  A
O266       Ni284   1.907       .  S
O266        C268   1.271       .  A
Ni267       O270   1.923       .  S
Ni267       O272   1.896       .  S
C268        O278   1.274       .  A
C268        C346   1.482       .  S
O269       Ni285   1.920       .  S
O269        C275   1.275       .  A
O270        C275   1.276       .  A
C271        C317   1.487       .  S
O272        C274   1.267       .  A
O273       Ni284   1.921       .  S
C274        O280   1.271       .  A
C274        C366   1.475       .  S
C275        C546   1.485   1_455  S
H276        O277   0.966       .  S
O277       Ni285   1.908       .  S
O277       Ni279   1.910       .  S
O277       Ni284   1.898       .  S
O278       Ni279   1.926       .  S
Ni279       O283   1.936       .  S
Ni279       O281   1.923       .  S
O280       Ni285   1.929       .  S
C282        O283   1.274       .  A
C282        C637   1.491       .  S
O287       Ni293   1.934       .  S
O287        C308   1.274       .  A
O288       Ni311   1.912       .  S
O288        C297   1.269       .  A
O289       Ni293   1.903       .  S
O289       Ni311   1.910       .  S
O289       Ni305   1.908       .  S
O289        H312   0.966       .  S
C290        O307   1.277       .  A
C290        O299   1.279       .  A
C290        C426   1.482       .  S
O291       Ni310   1.935       .  S
O291        C297   1.275       .  A
O292       Ni310   1.910       .  S
O292        C294   1.271       .  A
Ni293       O296   1.939       .  S
Ni293       O298   1.906       .  S
C294        O304   1.276       .  A
C294        C506   1.491       .  S
O295       Ni311   1.906       .  S
O295        C301   1.273       .  A
O296        C301   1.279       .  A
C297        C326   1.487       .  S
O298        C300   1.268       .  A
O299       Ni310   1.923       .  S
C300        O306   1.275       .  A
C300        C486   1.485       .  S
C301        C406   1.483   1_655  S
H302        O303   0.966       .  S
O303       Ni311   1.907       .  S
O303       Ni305   1.902       .  S
O303       Ni310   1.894       .  S
O304       Ni305   1.936       .  S
Ni305       O309   1.910       .  S
Ni305       O307   1.921       .  S
O306       Ni311   1.951       .  S
C308        O309   1.270       .  A
C308        C626   1.477       .  S
C313        C314   1.405       .  A
C313        C318   1.397       .  A
C313        H323   1.083   1_556  S
C314        C319   1.486   1_456  S
C314        C315   1.405       .  A
C315        C316   1.404       .  A
C315        H320   1.083       .  S
C316        C317   1.409       .  A
C316        H321   1.083       .  S
C317        C318   1.406       .  A
C318        H322   1.083       .  S
C319        C324   1.406       .  A
C319        C328   1.403       .  A
C324        C325   1.405       .  A
C324        H329   1.083   1_655  S
C325        C326   1.409       .  A
C325        H330   1.083       .  S
C326        C327   1.406       .  A
C327        C328   1.395       .  A
C327        H331   1.083       .  S
C328        H332   1.083       .  S
C333        C334   1.405       .  A
C333        C338   1.394       .  A
C333        H343   1.083       .  S
C334        C339   1.486       .  S
C334        C335   1.407       .  A
C335        C336   1.400       .  A
C335        H340   1.083       .  S
C336        C337   1.405       .  A
C336        H341   1.083       .  S
C337        C338   1.404       .  A
C338        H342   1.083       .  S
C339        C344   1.405       .  A
C339        C348   1.407       .  A
C344        C345   1.393       .  A
C344        H349   1.083       .  S
C345        C346   1.406       .  A
C345        H350   1.083       .  S
C346        C347   1.407       .  A
C347        C348   1.401       .  A
C347        H351   1.083       .  S
C348        H352   1.083       .  S
C353        C354   1.404       .  A
C353        C358   1.389       .  A
C353        H363   1.083       .  S
C354        C359   1.480       .  S
C354        C355   1.405       .  A
C355        C356   1.401       .  A
C355        H360   1.083       .  S
C356        C357   1.407   1_545  A
C356        H361   1.083       .  S
C357        C358   1.404   1_565  A
C358        H362   1.083   1_545  S
C359        C364   1.404       .  A
C359        C368   1.406       .  A
C364        C365   1.391       .  A
C364        H369   1.083       .  S
C365        C366   1.404       .  A
C365        H370   1.083       .  S
C366        C367   1.406       .  A
C367        C368   1.400       .  A
C367        H371   1.083       .  S
C368        H372   1.083       .  S
C373        C374   1.408       .  A
C373        C378   1.408       .  A
C373        H383   1.083   1_545  S
C374        C379   1.495   1_544  S
C374        C375   1.406       .  A
C375        C376   1.397       .  A
C375        H380   1.083       .  S
C376        C377   1.406       .  A
C376        H381   1.083       .  S
C377        C378   1.409       .  A
C378        H382   1.083       .  S
C379        C384   1.405       .  A
C379        C388   1.409       .  A
C384        C385   1.397       .  A
C384        H389   1.083       .  S
C385        C386   1.406       .  A
C385        H390   1.083       .  S
C386        C387   1.409       .  A
C387        C388   1.409       .  A
C387        H391   1.083       .  S
C388        H392   1.083       .  S
C393        C394   1.405       .  A
C393        C398   1.395       .  A
C393        H403   1.083       .  S
C394        C399   1.481       .  S
C394        C395   1.404       .  A
C395        C396   1.398       .  A
C395        H400   1.083       .  S
C396        C397   1.407       .  A
C396        H401   1.083       .  S
C397        C398   1.405       .  A
C398        H402   1.083       .  S
C399        C404   1.403       .  A
C399        C408   1.406       .  A
C404        C405   1.392       .  A
C404        H409   1.083       .  S
C405        C406   1.406       .  A
C405        H410   1.083       .  S
C406        C407   1.408       .  A
C407        C408   1.402       .  A
C407        H411   1.083       .  S
C408        H412   1.083       .  S
C413        C414   1.405       .  A
C413        C418   1.391       .  A
C413        H423   1.082       .  S
C414        C419   1.490       .  S
C414        C415   1.409       .  A
C415        C416   1.404       .  A
C415        H420   1.083       .  S
C416        C417   1.408       .  A
C416        H421   1.083       .  S
C417        C418   1.405       .  A
C418        H422   1.083       .  S
C419        C424   1.407       .  A
C419        C428   1.407       .  A
C424        C425   1.394       .  A
C424        H429   1.082       .  S
C425        C426   1.403       .  A
C425        H430   1.083       .  S
C426        C427   1.408       .  A
C427        C428   1.401       .  A
C427        H431   1.083       .  S
C428        H432   1.082       .  S
C433        C434   1.408       .  A
C433        C438   1.405   1_455  A
C433        H443   1.082       .  S
C434        C439   1.493       .  S
C434        C435   1.407       .  A
C435        C436   1.393   1_455  A
C435        H440   1.082       .  S
C436        C437   1.405       .  A
C436        H441   1.083       .  S
C437        C438   1.407       .  A
C438        H442   1.083       .  S
C439        C444   1.407       .  A
C439        C448   1.410       .  A
C444        C445   1.394       .  A
C444        H449   1.083       .  S
C445        C446   1.401       .  A
C445        H450   1.084       .  S
C446        C447   1.404       .  A
C447        C448   1.404       .  A
C447        H451   1.083       .  S
C448        H452   1.082       .  S
C453        C454   1.409       .  A
C453        C458   1.406       .  A
C453        H463   1.082       .  S
C454        C459   1.498       .  S
C454        C455   1.407       .  A
C455        C456   1.396       .  A
C455        H460   1.082       .  S
C456        C457   1.407       .  A
C456        H461   1.083       .  S
C457        C458   1.408       .  A
C458        H462   1.083       .  S
C459        C464   1.409       .  A
C459        C468   1.407       .  A
C464        C465   1.405       .  A
C464        H469   1.082       .  S
C465        C466   1.407       .  A
C465        H470   1.083       .  S
C466        C467   1.407       .  A
C467        C468   1.398       .  A
C467        H471   1.083       .  S
C468        H472   1.083       .  S
C473        C474   1.405       .  A
C473        C478   1.396       .  A
C473        H483   1.083       .  S
C474        C479   1.491       .  S
C474        C475   1.408       .  A
C475        C476   1.406       .  A
C475        H480   1.083       .  S
C476        C477   1.408       .  A
C476        H481   1.083       .  S
C477        C478   1.407       .  A
C478        H482   1.083       .  S
C479        C484   1.406       .  A
C479        C488   1.408       .  A
C484        C485   1.398       .  A
C484        H489   1.083       .  S
C485        C486   1.406   1_565  A
C485        H490   1.083   1_565  S
C486        C487   1.406       .  A
C487        C488   1.403   1_545  A
C487        H491   1.083       .  S
C488        H492   1.083       .  S
C493        C494   1.407       .  A
C493        C498   1.398       .  A
C493        H503   1.083       .  S
C494        C499   1.497       .  S
C494        C495   1.409       .  A
C495        C496   1.404       .  A
C495        H500   1.082       .  S
C496        C497   1.406       .  A
C496        H501   1.083       .  S
C497        C498   1.407       .  A
C498        H502   1.083       .  S
C499        C504   1.407       .  A
C499        C508   1.409       .  A
C504        C505   1.396       .  A
C504        H509   1.082       .  S
C505        C506   1.407       .  A
C505        H510   1.083       .  S
C506        C507   1.407       .  A
C507        C508   1.406       .  A
C507        H511   1.083       .  S
C508        H512   1.082       .  S
C513        C514   1.409       .  A
C513        C518   1.399       .  A
C513        H523   1.082       .  S
C514        C519   1.494       .  S
C514        C515   1.409       .  A
C515        C516   1.397       .  A
C515        H520   1.082       .  S
C516        C517   1.403       .  A
C516        H521   1.083       .  S
C517        C518   1.403       .  A
C518        H522   1.083       .  S
C519        C524   1.410       .  A
C519        C528   1.408       .  A
C524        C525   1.401       .  A
C524        H529   1.082       .  S
C525        C526   1.405       .  A
C525        H530   1.083       .  S
C526        C527   1.404       .  A
C527        C528   1.395       .  A
C527        H531   1.083       .  S
C528        H532   1.082       .  S
C533        C534   1.409       .  A
C533        C538   1.402   1_545  A
C533        H543   1.082       .  S
C534        C539   1.494       .  S
C534        C535   1.408       .  A
C535        C536   1.397   1_545  A
C535        H540   1.083       .  S
C536        C537   1.404       .  A
C536        H541   1.083       .  S
C537        C538   1.404       .  A
C538        H542   1.083       .  S
C539        C544   1.410       .  A
C539        C548   1.406       .  A
C544        C545   1.405       .  A
C544        H549   1.082       .  S
C545        C546   1.406       .  A
C545        H550   1.083       .  S
C546        C547   1.405       .  A
C547        C548   1.394       .  A
C547        H551   1.083       .  S
C548        H552   1.082       .  S
C553        C554   1.409       .  A
C553        C558   1.401       .  A
C553        H563   1.082       .  S
C554        C559   1.494       .  S
C554        C555   1.407       .  A
C555        C556   1.396       .  A
C555        H560   1.082       .  S
C556        C557   1.406       .  A
C556        H561   1.083       .  S
C557        C558   1.407       .  A
C558        H562   1.083       .  S
C559        C564   1.409       .  A
C559        C568   1.409       .  A
C564        C565   1.398       .  A
C564        H569   1.082       .  S
C565        C566   1.403       .  A
C565        H570   1.083       .  S
C566        C567   1.402       .  A
C567        C568   1.399       .  A
C567        H571   1.083       .  S
C568        H572   1.082       .  S
C573        C574   1.406       .  A
C573        C578   1.393       .  A
C573        H583   1.082       .  S
C574        C579   1.488       .  S
C574        C575   1.408       .  A
C575        C576   1.401       .  A
C575        H580   1.083       .  S
C576        C577   1.406       .  A
C576        H581   1.083       .  S
C577        C578   1.403       .  A
C578        H582   1.083       .  S
C579        C584   1.406       .  A
C579        C588   1.407       .  A
C584        C585   1.396   1_655  A
C584        H589   1.083       .  S
C585        C586   1.405       .  A
C585        H590   1.083       .  S
C586        C587   1.404       .  A
C587        C588   1.398   1_455  A
C587        H591   1.083       .  S
C588        H592   1.082       .  S
C593        C594   1.408       .  A
C593        C598   1.403       .  A
C593        H603   1.083       .  S
C594        C599   1.492   1_556  S
C594        C595   1.406       .  A
C595        C596   1.397       .  A
C595        H600   1.083       .  S
C596        C597   1.406       .  A
C596        H601   1.083       .  S
C597        C598   1.407       .  A
C598        H602   1.083       .  S
C599        C604   1.407       .  A
C599        C608   1.407       .  A
C604        C605   1.401       .  A
C604        H609   1.083       .  S
C605        C606   1.406       .  A
C605        H610   1.083       .  S
C606        C607   1.406       .  A
C607        C608   1.398       .  A
C607        H611   1.083       .  S
C608        H612   1.083       .  S
C613        C614   1.410       .  A
C613        C618   1.402       .  A
C613        H623   1.083       .  S
C614        C619   1.490       .  S
C614        C615   1.407       .  A
C615        C616   1.398       .  A
C615        H620   1.083       .  S
C616        C617   1.402       .  A
C616        H621   1.083       .  S
C617        C618   1.401       .  A
C618        H622   1.083       .  S
C619        C624   1.406       .  A
C619        C628   1.409       .  A
C624        C625   1.396       .  A
C624        H629   1.083       .  S
C625        C626   1.404       .  A
C625        H630   1.083       .  S
C626        C627   1.404       .  A
C627        C628   1.403       .  A
C627        H631   1.083       .  S
C628        H632   1.083       .  S
C633        C634   1.413       .  A
C633        C638   1.413       .  A
C633        H643   1.082       .  S
C634        C639   1.500       .  S
C634        C635   1.405       .  A
C635        C636   1.392       .  A
C635        H640   1.082       .  S
C636        C637   1.406       .  A
C636        H641   1.083       .  S
C637        C638   1.407       .  A
C638        H642   1.083       .  S
C639        C644   1.409       .  A
C639        C648   1.410       .  A
C644        C645   1.406       .  A
C644        H649   1.082       .  S
C645        C646   1.404       .  A
C645        H650   1.083       .  S
C646        C647   1.402       .  A
C647        C648   1.399       .  A
C647        H651   1.083       .  S
C648        H652   1.083       .  S
C653        C654   1.408       .  A
C653        C658   1.408       .  A
C653        H663   1.083       .  S
C654        C659   1.493   1_655  S
C654        C655   1.405       .  A
C655        C656   1.396       .  A
C655        H660   1.083       .  S
C656        C657   1.407       .  A
C656        H661   1.083       .  S
C657        C658   1.409       .  A
C658        H662   1.083       .  S
C659        C664   1.409       .  A
C659        C668   1.405       .  A
C664        C665   1.409       .  A
C664        H669   1.083   1_455  S
C665        C666   1.409       .  A
C665        H670   1.083       .  S
C666        C667   1.406       .  A
C667        C668   1.395       .  A
C667        H671   1.083       .  S
C668        H672   1.083       .  S
C673        C674   1.407       .  A
C673        C678   1.402       .  A
C673        H683   1.083       .  S
C674        C679   1.484       .  S
C674        C675   1.404       .  A
C675        C676   1.399       .  A
C675        H680   1.083       .  S
C676        C677   1.403       .  A
C676        H681   1.083       .  S
C677        C678   1.402       .  A
C678        H682   1.083       .  S
C679        C684   1.401       .  A
C679        C688   1.408       .  A
C684        C685   1.394       .  A
C684        H689   1.084       .  S
C685        C686   1.407       .  A
C685        H690   1.083       .  S
C686        C687   1.407       .  A
C687        C688   1.408       .  A
C687        H691   1.083       .  S
C688        H692   1.083       .  S
C693        C694   1.405       .  A
C693        C698   1.397       .  A
C693        H703   1.083       .  S
C694        C699   1.489       .  S
C694        C695   1.406       .  A
C695        C696   1.404       .  A
C695        H700   1.083       .  S
C696        C697   1.407       .  A
C696        H701   1.083       .  S
C697        C698   1.406       .  A
C698        H702   1.083       .  S
C699        C704   1.404       .  A
C699        C708   1.407       .  A
C704        C705   1.394       .  A
C704        H709   1.083       .  S
C705        C706   1.406       .  A
C705        H710   1.083       .  S
C706        C707   1.409       .  A
C707        C708   1.406       .  A
C707        H711   1.083       .  S
C708        H712   1.083       .  S
C713        C714   1.407       .  A
C713        C718   1.400       .  A
C713        H723   1.083       .  S
C714        C719   1.485       .  S
C714        C715   1.406       .  A
C715        C716   1.394       .  A
C715        H720   1.083       .  S
C716        C717   1.402       .  A
C716        H721   1.083       .  S
C717        C718   1.406       .  A
C718        H722   1.083       .  S
C719        C724   1.405       .  A
C719        C728   1.408       .  A
C724        C725   1.391       .  A
C724        H729   1.083       .  S
C725        C726   1.403       .  A
C725        H730   1.083       .  S
C726        C727   1.405       .  A
C727        C728   1.403       .  A
C727        H731   1.083       .  S
C728        H732   1.083       .  S
C733        C734   1.408       .  A
C733        C738   1.403       .  A
C733        H743   1.083       .  S
C734        C739   1.488       .  S
C734        C735   1.405       .  A
C735        C736   1.396       .  A
C735        H740   1.083       .  S
C736        C737   1.404       .  A
C736        H741   1.083       .  S
C737        C738   1.405       .  A
C738        H742   1.083       .  S
C739        C744   1.408       .  A
C739        C748   1.406       .  A
C744        C745   1.402       .  A
C744        H749   1.083       .  S
C745        C746   1.402       .  A
C745        H750   1.083       .  S
C746        C747   1.403       .  A
C747        C748   1.399       .  A
C747        H751   1.083       .  S
C748        H752   1.083       .  S
C753        C754   1.405       .  A
C753        C758   1.405       .  A
C753        H763   1.083       .  S
C754        C759   1.478   1_565  S
C754        C755   1.400       .  A
C755        C756   1.393       .  A
C755        H760   1.084       .  S
C756        C757   1.409       .  A
C756        H761   1.083       .  S
C757        C758   1.408       .  A
C758        H762   1.083       .  S
C759        C764   1.404       .  A
C759        C768   1.401       .  A
C764        C765   1.403       .  A
C764        H769   1.083   1_545  S
C765        C766   1.408       .  A
C765        H770   1.083       .  S
C766        C767   1.407       .  A
C767        C768   1.394       .  A
C767        H771   1.083       .  S
C768        H772   1.083       .  S
C773        C774   1.408       .  A
C773        C778   1.403       .  A
C773        H783   1.083       .  S
C774        C779   1.483       .  S
C774        C775   1.404       .  A
C775        C776   1.390       .  A
C775        H780   1.083       .  S
C776        C777   1.403       .  A
C776        H781   1.083       .  S
C777        C778   1.405       .  A
C778        H782   1.083       .  S
C779        C784   1.406       .  A
C779        C788   1.406       .  A
C784        C785   1.394       .  A
C784        H789   1.083       .  S
C785        C786   1.402       .  A
C785        H790   1.083       .  S
C786        C787   1.405       .  A
C787        C788   1.399       .  A
C787        H791   1.083       .  S
C788        H792   1.083       .  S
C793        C794   1.411       .  A
C793        C798   1.404       .  A
C793        H803   1.082       .  S
C794        C799   1.498       .  S
C794        C795   1.408       .  A
C795        C796   1.393       .  A
C795        H800   1.082       .  S
C796        C797   1.405       .  A
C796        H801   1.083       .  S
C797        C798   1.407       .  A
C798        H802   1.083       .  S
C799        C804   1.410       .  A
C799        C808   1.409       .  A
C804        C805   1.401       .  A
C804        H809   1.081       .  S
C805        C806   1.404       .  A
C805        H810   1.083       .  S
C806        C807   1.403       .  A
C807        C808   1.396       .  A
C807        H811   1.083       .  S
C808        H812   1.082       .  S
C813        C814   1.411       .  A
C813        C818   1.408       .  A
C813        H823   1.083       .  S
C814        C819   1.493       .  S
C814        C815   1.405       .  A
C815        C816   1.390       .  A
C815        H820   1.082       .  S
C816        C817   1.403       .  A
C816        H821   1.083       .  S
C817        C818   1.406       .  A
C818        H822   1.083       .  S
C819        C824   1.409       .  A
C819        C828   1.409       .  A
C824        C825   1.402       .  A
C824        H829   1.082       .  S
C825        C826   1.401       .  A
C825        H830   1.083       .  S
C826        C827   1.400       .  A
C827        C828   1.397       .  A
C827        H831   1.084       .  S
C828        H832   1.083       .  S
C833        C834   1.406       .  A
C833        C838   1.395       .  A
C833        H843   1.082       .  S
C834        C839   1.498       .  S
C834        C835   1.411       .  A
C835        C836   1.405       .  A
C835        H840   1.082       .  S
C836        C837   1.406       .  A
C836        H841   1.083       .  S
C837        C838   1.406       .  A
C838        H842   1.083       .  S
C839        C844   1.408       .  A
C839        C848   1.410       .  A
C844        C845   1.400   1_565  A
C844        H849   1.082       .  S
C845        C846   1.406       .  A
C845        H850   1.083       .  S
C846        C847   1.405       .  A
C847        C848   1.400   1_545  A
C847        H851   1.083       .  S
C848        H852   1.082       .  S
C853        C854   1.407       .  A
C853        C858   1.404       .  A
C853        H863   1.083       .  S
C854        C859   1.487       .  S
C854        C855   1.405       .  A
C855        C856   1.391       .  A
C855        H860   1.083       .  S
C856        C857   1.404       .  A
C856        H861   1.083       .  S
C857        C858   1.408       .  A
C858        H862   1.083       .  S
C859        C864   1.406       .  A
C859        C868   1.406       .  A
C864        C865   1.403       .  A
C864        H869   1.083       .  S
C865        C866   1.408       .  A
C865        H870   1.083       .  S
C866        C867   1.404       .  A
C867        C868   1.394       .  A
C867        H871   1.083       .  S
C868        H872   1.083       .  S
C873        C874   1.408       .  A
C873        C878   1.402       .  A
C873        H883   1.083       .  S
C874        C879   1.489       .  S
C874        C875   1.406       .  A
C875        C876   1.393       .  A
C875        H880   1.082       .  S
C876        C877   1.404       .  A
C876        H881   1.083       .  S
C877        C878   1.406       .  A
C878        H882   1.083       .  S
C879        C884   1.406       .  A
C879        C888   1.408       .  A
C884        C885   1.395   1_455  A
C884        H889   1.083       .  S
C885        C886   1.405       .  A
C885        H890   1.083       .  S
C886        C887   1.405       .  A
C887        C888   1.400   1_655  A
C887        H891   1.083       .  S
C888        H892   1.082       .  S
C893        C894   1.405       .  A
C893        C898   1.398       .  A
C893        H903   1.083       .  S
C894        C899   1.485       .  S
C894        C895   1.405       .  A
C895        C896   1.399       .  A
C895        H900   1.083       .  S
C896        C897   1.406       .  A
C896        H901   1.083       .  S
C897        C898   1.407       .  A
C898        H902   1.083       .  S
C899        C904   1.404       .  A
C899        C908   1.406       .  A
C904        C905   1.396       .  A
C904        H909   1.083       .  S
C905        C906   1.408       .  A
C905        H910   1.083       .  S
C906        C907   1.406       .  A
C907        C908   1.402       .  A
C907        H911   1.083       .  S
C908        H912   1.083       .  S
C913        C914   1.409       .  A
C913        C918   1.399       .  A
C913        H923   1.083       .  S
C914        C919   1.490       .  S
C914        C915   1.408       .  A
C915        C916   1.399       .  A
C915        H920   1.083       .  S
C916        C917   1.401       .  A
C916        H921   1.084       .  S
C917        C918   1.400       .  A
C918        H922   1.083       .  S
C919        C924   1.405       .  A
C919        C928   1.410       .  A
C924        C925   1.394       .  A
C924        H929   1.083       .  S
C925        C926   1.404       .  A
C925        H930   1.083       .  S
C926        C927   1.405       .  A
C927        C928   1.405       .  A
C927        H931   1.083       .  S
C928        H932   1.083       .  S
C933        C934   1.408       .  A
C933        C938   1.396       .  A
C933        H943   1.082       .  S
C934        C939   1.497       .  S
C934        C935   1.409       .  A
C935        C936   1.404       .  A
C935        H940   1.082       .  S
C936        C937   1.408       .  A
C936        H941   1.083       .  S
C937        C938   1.405       .  A
C938        H942   1.083       .  S
C939        C944   1.409       .  A
C939        C948   1.409       .  A
C944        C945   1.397       .  A
C944        H949   1.082       .  S
C945        C946   1.404       .  A
C945        H950   1.083       .  S
C946        C947   1.406       .  A
C947        C948   1.402       .  A
C947        H951   1.083       .  S
C948        H952   1.082       .  S
C953        C954   1.407   1_565  A
C953        C958   1.401       .  A
C953        H963   1.083   1_565  S
C954        C959   1.489       .  S
C954        C955   1.406       .  A
C955        C956   1.396   1_545  A
C955        H960   1.083       .  S
C956        C957   1.405       .  A
C956        H961   1.083       .  S
C957        C958   1.407       .  A
C958        H962   1.083       .  S
C959        C964   1.405       .  A
C959        C968   1.408       .  A
C964        C965   1.394       .  A
C964        H969   1.083       .  S
C965        C966   1.406       .  A
C965        H970   1.083       .  S
C966        C967   1.407       .  A
C967        C968   1.403       .  A
C967        H971   1.083       .  S
C968        H972   1.083       .  S
C973        C974   1.409       .  A
C973        C978   1.404       .  A
C973        H983   1.083       .  S
C974        C979   1.490       .  S
C974        C975   1.404       .  A
C975        C976   1.394       .  A
C975        H980   1.083       .  S
C976        C977   1.407       .  A
C976        H981   1.083       .  S
C977        C978   1.407       .  A
C978        H982   1.083       .  S
C979        C984   1.405       .  A
C979        C988   1.409       .  A
C984        C985   1.399       .  A
C984        H989   1.083       .  S
C985        C986   1.406       .  A
C985        H990   1.083       .  S
C986        C987   1.405       .  A
C987        C988   1.400       .  A
C987        H991   1.083       .  S
C988        H992   1.083       .  S
C993        C994   1.408       .  A
C993        C998   1.395       .  A
C993       H1003   1.082       .  S
C994        C999   1.495       .  S
C994        C995   1.411       .  A
C995        C996   1.401       .  A
C995       H1000   1.082       .  S
C996        C997   1.402       .  A
C996       H1001   1.083       .  S
C997        C998   1.403       .  A
C998       H1002   1.084       .  S
C999       C1004   1.408       .  A
C999       C1008   1.409       .  A
C1004      C1005   1.395   1_655  A
C1004      H1009   1.082       .  S
C1005      C1006   1.404       .  A
C1005      H1010   1.083       .  S
C1006      C1007   1.404       .  A
C1007      C1008   1.402   1_455  A
C1007      H1011   1.083       .  S
C1008      H1012   1.082       .  S
C1013      C1014   1.406       .  A
C1013      C1018   1.407       .  A
C1013      H1023   1.083       .  S
C1014      C1019   1.481       .  S
C1014      C1015   1.401       .  A
C1015      C1016   1.392       .  A
C1015      H1020   1.084       .  S
C1016      C1017   1.408       .  A
C1016      H1021   1.083       .  S
C1017      C1018   1.408       .  A
C1018      H1022   1.083       .  S
C1019      C1024   1.405       .  A
C1019      C1028   1.402       .  A
C1024      C1025   1.405       .  A
C1024      H1029   1.083       .  S
C1025      C1026   1.409       .  A
C1025      H1030   1.083       .  S
C1026      C1027   1.406       .  A
C1027      C1028   1.393       .  A
C1027      H1031   1.083       .  S
C1028      H1032   1.084       .  S
