geometry optimzed in LAMMPS
_audit_creation_date              2020-12-01 
_audit_creation_method            'lammps2cif' 
_symmetry_space_group_name_H-M    'P1' 
_symmetry_Int_Tables_number       1 
_symmetry_cell_setting            triclinic 
loop_ 
_symmetry_equiv_pos_as_xyz 
  x,y,z 
_cell_length_a                    26.70588255 
_cell_length_b                    26.70761734656787 
_cell_length_c                    78.27781311035729 
_cell_angle_alpha                 90.03079533800972 
_cell_angle_beta                  89.96776773328372 
_cell_angle_gamma                 120.00891292442121 
loop_ 
_atom_site_label 
_atom_site_type_symbol 
_atom_site_fract_x 
_atom_site_fract_y 
_atom_site_fract_z 
_atom_site_charge 
O1          O  0.88897135  0.17744825  0.62157870    -0.79500
O2          O  0.92912350  0.22215365  0.54175832    -0.64200
O3          O  0.92253677  0.23468539  0.59007884    -1.10800
C4          C  0.73000229  0.19437954  0.57738990     1.07400
O5          O  0.89216715  0.27875306  0.53693020    -0.77400
O6          O  0.84607429  0.31266891  0.56228827    -0.65000
Ni7        Ni  0.94295745  0.18821818  0.60387812     1.34900
C8          C  0.86262884  0.32946698  0.57745104     0.86100
O9          O  0.00631798  0.24756010  0.56614029    -0.78000
O10         O  0.00276964  0.19488875  0.58865891    -0.88200
C11         C  0.92558744  0.25949150  0.53275972     0.85700
O12         O  0.88736461  0.11761758  0.59351873    -0.66400
O13         O  0.74703055  0.20806318  0.56194343    -0.85700
C14         C  0.88298365  0.10584485  0.57771328     0.86500
C15         C  0.02751654  0.22368043  0.57531570     1.08100
H16         H  0.82378955  0.16510686  0.56411455     0.39900
O17         O  0.84720698  0.20607443  0.56630057    -1.08400
O18         O  0.86648508  0.29775734  0.58898035    -0.65000
Ni19       Ni  0.84284194  0.21618257  0.59029931     1.26300
O20         O  0.90276133  0.14455709  0.56610151    -0.65300
O21         O  0.76265675  0.19633948  0.58962081    -0.77600
C22         C  0.85801880  0.19937723  0.62552382     0.85900
O23         O  0.84112159  0.22345275  0.61472624    -0.64700
Ni24       Ni  0.82086891  0.24190635  0.55033272     1.27400
Ni25       Ni  0.92658435  0.22654964  0.56591793     1.26100
H26         H  0.94744118  0.27475077  0.59314646     0.40400
O27         O  0.15909450  0.30255508  0.38037896    -0.79500
O28         O  0.11318626  0.31044755  0.45929914    -0.64200
O29         O  0.11876264  0.32572123  0.41085652    -1.10800
C30         C  0.30883609  0.48302675  0.42269323     1.07400
O31         O  0.14843903  0.40412561  0.46344834    -0.77400
O32         O  0.19311367  0.48276889  0.43781985    -0.65000
Ni33       Ni  0.10079372  0.25942325  0.39713118     1.34900
C34         C  0.17411296  0.48059004  0.42284392     0.86100
O35         O  0.03637486  0.25497838  0.43500068    -0.78000
O36         O  0.03794914  0.20735018  0.41168170    -0.88200
C37         C  0.11590489  0.35167730  0.46795370     0.85700
O38         O  0.15367156  0.24250936  0.40832178    -0.66400
O39         O  0.29285700  0.47893713  0.43827100    -0.85700
C40         C  0.16001624  0.23829231  0.42417288     0.86500
C41         C  0.01390939  0.21114816  0.42525593     1.08100
H42         H  0.21862709  0.35951678  0.43650067     0.39900
O43         O  0.19413589  0.37587442  0.43435078    -1.08400
O44         O  0.16952062  0.44400880  0.41157740    -0.65000
Ni45       Ni  0.19685754  0.38910593  0.41028999     1.26300
O46         O  0.14136865  0.25900846  0.43556249    -0.65300
O47         O  0.27583488  0.45206864  0.41055299    -0.77600
C48         C  0.18292761  0.35476987  0.37556267     0.85900
O49         O  0.19608103  0.39643831  0.38586423    -0.64700
Ni50       Ni  0.21952632  0.43872778  0.45002132     1.27400
Ni51       Ni  0.11538883  0.31533344  0.43506906     1.26100
H52         H  0.09251700  0.33915232  0.40769546     0.40400
O53         O  0.14717746  0.87125428  0.38336045    -0.79500
O54         O  0.21203547  0.92828317  0.45946750    -0.64200
O55         O  0.22026450  0.92117357  0.41119261    -1.10800
C56         C  0.18801380  0.73180470  0.42338353     1.07400
O57         O  0.27159182  0.89406952  0.46335651    -0.77400
O58         O  0.30509255  0.84875052  0.43776357    -0.65000
Ni59       Ni  0.17399276  0.93990518  0.39688329     1.34900
C60         C  0.32108983  0.86714644  0.42268335     0.86100
O61         O  0.22994669  0.00410295  0.43496700    -0.78000
O62         O  0.19677183  0.01063906  0.40911059    -0.88200
C63         C  0.25060723  0.92549647  0.46804727     0.85700
O64         O  0.10392087  0.90075535  0.40948478    -0.66400
O65         O  0.20138011  0.74864649  0.43884280    -0.85700
C66         C  0.09349867  0.88863760  0.42516760     0.86500
C67         C  0.21768354  0.03097170  0.42379399     1.08100
H68         H  0.15619322  0.82226813  0.43712483     0.39900
O69         O  0.19688434  0.84705328  0.43477729    -1.08400
O70         O  0.28822313  0.87072669  0.41151744    -0.65000
Ni71       Ni  0.20578885  0.84321499  0.41072725     1.26300
O72         O  0.13207816  0.89811865  0.43618154    -0.65300
O73         O  0.18964744  0.76428212  0.41115151    -0.77600
C74         C  0.17891508  0.85341015  0.37694842     0.85900
O75         O  0.21184228  0.84330852  0.38626448    -0.64700
Ni76       Ni  0.23512785  0.82248480  0.45028906     1.27400
Ni77       Ni  0.21393439  0.92558358  0.43529473     1.26100
H78         H  0.26010604  0.94707405  0.40809144     0.40400
O79         O  0.29445830  0.15827531  0.61964909    -0.79500
O80         O  0.30339727  0.11336287  0.54103437    -0.64200
O81         O  0.31816815  0.11703493  0.58939937    -1.10800
C82         C  0.47562628  0.30737664  0.57760136     1.07400
O83         O  0.39674222  0.14542538  0.53738138    -0.77400
O84         O  0.47606978  0.19082981  0.56286405    -0.65000
Ni85       Ni  0.25184019  0.09808137  0.60331738     1.34900
C86         C  0.47450572  0.17326340  0.57799296     0.86100
O87         O  0.24594103  0.03570763  0.56488631    -0.78000
O88         O  0.20052126  0.03383588  0.58911611    -0.88200
C89         C  0.34430010  0.11437537  0.53266943     0.85700
O90         O  0.23089740  0.14796865  0.59201207    -0.66400
O91         O  0.47257774  0.29072946  0.56211547    -0.85700
C92         C  0.22894376  0.15681134  0.57619881     0.86500
C93         C  0.20296147  0.01190629  0.57494720     1.08100
H94         H  0.35338287  0.21753149  0.56378713     0.39900
O95         O  0.36913173  0.19256649  0.56603806    -1.08400
O96         O  0.43759652  0.16885772  0.58914612    -0.65000
Ni97       Ni  0.38169748  0.19534015  0.59005105     1.26300
O98         O  0.25258788  0.14148114  0.56480644    -0.65300
O99         O  0.44417790  0.27466198  0.58974239    -0.77600
C100        C  0.34654137  0.18203022  0.62461019     0.85900
O101        O  0.38840536  0.19480051  0.61444743    -0.64700
Ni102      Ni  0.43210302  0.21703721  0.55051019     1.27400
Ni103      Ni  0.30771988  0.11430013  0.56518735     1.26100
H104        H  0.33187030  0.09088436  0.59240088     0.40400
O105        O  0.73881733  0.87922880  0.37864306    -0.79500
O106        O  0.73089726  0.82987812  0.45817720    -0.64200
O107        O  0.71405498  0.81923782  0.40976788    -1.10800
C108        C  0.56112864  0.85822462  0.42230415     1.07400
O109        O  0.63726543  0.77220966  0.46242770    -0.77400
O110        O  0.55808555  0.73990168  0.43695303    -0.65000
Ni111      Ni  0.78125647  0.86620230  0.39613648     1.34900
C112        C  0.55905445  0.72336821  0.42183610     0.86100
O113        O  0.78341508  0.80542868  0.43388166    -0.78000
O114        O  0.83323618  0.85726720  0.41126591    -0.88200
C115        C  0.68966124  0.79196125  0.46694696     0.85700
O116        O  0.79734794  0.93657549  0.40688462    -0.66400
O117        O  0.56452683  0.84477053  0.43775716    -0.85700
C118        C  0.80310920  0.94736990  0.42275321     0.86500
C119        C  0.82849329  0.82862390  0.42471833     1.08100
H120        H  0.68348934  0.88764584  0.43572747     0.39900
O121        O  0.66616262  0.84675158  0.43345246    -1.08400
O122        O  0.59539382  0.75534001  0.41051392    -0.65000
Ni123      Ni  0.65257858  0.83705865  0.40941207     1.26300
O124        O  0.78298402  0.90813205  0.43417661    -0.65300
O125        O  0.59163038  0.85606097  0.41002291    -0.77600
C126        C  0.68603003  0.85477135  0.37433604     0.85900
O127        O  0.64458509  0.82976221  0.38496271    -0.64700
Ni128      Ni  0.60356793  0.81001848  0.44922837     1.27400
Ni129      Ni  0.72496040  0.82636730  0.43397689     1.26100
H130        H  0.69926042  0.77931672  0.40659727     0.40400
O131        O  0.87363004  0.74130209  0.62114296    -0.79500
O132        O  0.81469869  0.73807542  0.54265744    -0.64200
O133        O  0.80857315  0.71969400  0.59102090    -1.16200
C134        C  0.84351963  0.56513852  0.57682968     1.07400
O135        O  0.75668820  0.64439159  0.53811068    -0.77400
O136        O  0.72514864  0.56349902  0.56325805    -0.65000
Ni137      Ni  0.85852534  0.78557757  0.60477381     1.34900
C138        C  0.70955635  0.56369169  0.57854654     0.86100
O139        O  0.79561658  0.79253303  0.56784487    -0.78000
O140        O  0.84842778  0.83920349  0.59072784    -0.88200
C141        C  0.77695282  0.69705370  0.53374911     0.85700
O142        O  0.92726963  0.80187655  0.59295434    -0.66400
O143        O  0.82952259  0.56934258  0.56150160    -0.85700
C144        C  0.93632788  0.80772083  0.57700608     0.86500
C145        C  0.81989881  0.83670608  0.57744846     1.08100
H146        H  0.87302104  0.68819768  0.56408935     0.39900
O147        O  0.83232357  0.67139355  0.56658651    -1.08400
O148        O  0.74202701  0.60016236  0.58980247    -0.65000
Ni149      Ni  0.82423349  0.65676705  0.59054858     1.26300
O150        O  0.89587689  0.78813126  0.56597081    -0.65300
O151        O  0.84197418  0.59517044  0.58930976    -0.77600
C152        C  0.84731168  0.68841448  0.62537300     0.85900
O153        O  0.81856835  0.64765330  0.61486517    -0.64700
Ni154      Ni  0.79452462  0.60943815  0.55068690     1.27400
Ni155      Ni  0.81372104  0.73171475  0.56684771     1.26100
H156        H  0.76914671  0.70573584  0.59459697     0.40400
O157        O  0.06386028  0.54966818  0.04961146    -0.79500
O158        O  0.05455474  0.48952951  0.12721085    -0.64200
O159        O  0.04174150  0.48102145  0.07876372    -1.10800
C160        C  0.88238412  0.51059558  0.09023443     1.07400
O161        O  0.96102373  0.42809791  0.13061138    -0.77400
O162        O  0.88227442  0.39471029  0.10482990    -0.65000
Ni163      Ni  0.10732003  0.52953496  0.06485062     1.34900
C164        C  0.88583748  0.37847650  0.08987859     0.86100
O165        O  0.11406343  0.47245065  0.10309720    -0.78000
O166        O  0.15803829  0.51376683  0.07837810    -0.88200
C167        C  0.01332050  0.44974215  0.13554995     0.85700
O168        O  0.13019800  0.59959430  0.07686005    -0.66400
O169        O  0.88604370  0.49831674  0.10581174    -0.85700
C170        C  0.13062526  0.60953149  0.09268169     0.86500
C171        C  0.15600263  0.48999892  0.09265289     1.08100
H172        H  0.00437522  0.54420304  0.10425929     0.39900
O173        O  0.98912156  0.50353788  0.10203263    -1.08400
O174        O  0.92348660  0.41099040  0.07893718    -0.65000
Ni175      Ni  0.97706066  0.49356825  0.07796264     1.26300
O176        O  0.10533472  0.57010198  0.10383598    -0.65300
O177        O  0.91313113  0.50811350  0.07808530    -0.77600
C178        C  0.01357312  0.51698570  0.04375879     0.85900
O179        O  0.97115937  0.48569556  0.05351351    -0.64700
Ni180      Ni  0.92591573  0.46459225  0.11743000     1.27400
Ni181      Ni  0.05126385  0.48771930  0.10297060     1.26100
H182        H  0.02908938  0.44145843  0.07564229     0.40400
O183        O  0.21636749  0.40551764  0.28538323    -0.79500
O184        O  0.15374487  0.39844326  0.20782112    -0.64200
O185        O  0.14753742  0.38411904  0.25625105    -1.10800
C186        C  0.17762073  0.22576605  0.24341812     1.07400
O187        O  0.09207854  0.30496917  0.20445440    -0.77400
O188        O  0.06113601  0.22515904  0.22972931    -0.65000
Ni189      Ni  0.19652069  0.44938935  0.27021859     1.34900
C190        C  0.04523337  0.22796471  0.24477905     0.86100
O191        O  0.13798796  0.45746505  0.23237737    -0.78000
O192        O  0.18123195  0.50091944  0.25692443    -0.88200
C193        C  0.11283122  0.35737103  0.19973670     0.85700
O194        O  0.26617480  0.47157925  0.25804477    -0.66400
O195        O  0.16501343  0.23016328  0.22792752    -0.85700
C196        C  0.27573040  0.47277677  0.24216807     0.86500
C197        C  0.15659927  0.49937350  0.24286737     1.08100
H198        H  0.20988722  0.34795973  0.23007859     0.39900
O199        O  0.16929740  0.33253167  0.23247745    -1.08400
O200        O  0.07778485  0.26550980  0.25575275    -0.65000
Ni201      Ni  0.16042093  0.31952945  0.25650322     1.26300
O202        O  0.23588558  0.44873394  0.23104113    -0.65300
O203        O  0.17530882  0.25585808  0.25579295    -0.77600
C204        C  0.18495562  0.35446441  0.29087835     0.85900
O205        O  0.15377087  0.31254882  0.28095237    -0.64700
Ni206      Ni  0.13010045  0.26996551  0.21691236     1.27400
Ni207      Ni  0.15333643  0.39463091  0.23205219     1.26100
H208        H  0.10806166  0.37118746  0.25955444     0.40400
O209        O  0.63044933  0.82695063  0.28422568    -0.79500
O210        O  0.63985202  0.78149610  0.20600347    -0.64200
O211        O  0.65491819  0.78464108  0.25433089    -1.10800
C212        C  0.81029258  0.97585042  0.24303019     1.07400
O213        O  0.73350361  0.81614689  0.20192598    -0.77400
O214        O  0.81225029  0.86019944  0.22768809    -0.65000
Ni215      Ni  0.58876085  0.76475161  0.26837750     1.34900
C216        C  0.81050739  0.84203875  0.24276570     0.86100
O217        O  0.58361360  0.70294323  0.22984688    -0.78000
O218        O  0.53898621  0.69884451  0.25450640    -0.88200
C219        C  0.68099876  0.78419362  0.19735908     0.85700
O220        O  0.56468926  0.81184679  0.25686432    -0.66400
O221        O  0.80784883  0.95990162  0.22749611    -0.85700
C222        C  0.56317780  0.82121574  0.24107844     0.86500
C223        C  0.54157400  0.67762305  0.24020700     1.08100
H224        H  0.68842974  0.88526415  0.22893242     0.39900
O225        O  0.70487079  0.86084268  0.23108415    -1.08400
O226        O  0.77381011  0.83756606  0.25397861    -0.65000
Ni227      Ni  0.71743041  0.86311871  0.25513605     1.26300
O228        O  0.58834634  0.80768170  0.22972929    -0.65300
O229        O  0.77895374  0.94256207  0.25505699    -0.77600
C230        C  0.68197147  0.84923132  0.28957494     0.85900
O231        O  0.72418059  0.86180199  0.27956719    -0.64700
Ni232      Ni  0.76812028  0.88683478  0.21553920     1.27400
Ni233      Ni  0.64448477  0.78206070  0.23013646     1.26100
H234        H  0.66916872  0.75889303  0.25727458     0.40400
O235        O  0.48316863  0.54424828  0.04762335    -0.79500
O236        O  0.53898275  0.59001650  0.12623437    -0.64200
O237        O  0.54880116  0.58442418  0.07783673    -1.10800
C238        C  0.51328260  0.39358764  0.08984697     1.07400
O239        O  0.59800650  0.55545981  0.13023899    -0.77400
O240        O  0.63174432  0.51145248  0.10447046    -0.65000
Ni241      Ni  0.50238307  0.60474043  0.06397144     1.34900
C242        C  0.64688685  0.52769529  0.08920203     0.86100
O243        O  0.56089197  0.66737912  0.10219525    -0.78000
O244        O  0.51692039  0.66959231  0.07813185    -0.88200
C245        C  0.57803625  0.58793581  0.13472358     0.85700
O246        O  0.43161117  0.55584117  0.07541634    -0.66400
O247        O  0.52861490  0.41084225  0.10519618    -0.85700
C248        C  0.42109469  0.54749544  0.09125157     0.86500
C249        C  0.54213208  0.69164376  0.09218644     1.08100
H250        H  0.48252256  0.48508611  0.10389313     0.39900
O251        O  0.52322236  0.50927520  0.10144019    -1.08400
O252        O  0.61359767  0.53019057  0.07797119    -0.65000
Ni253      Ni  0.53171771  0.50540788  0.07734607     1.26300
O254        O  0.46017237  0.56274523  0.10258791    -0.65300
O255        O  0.51302780  0.42567980  0.07777788    -0.77600
C256        C  0.50963765  0.51852642  0.04272228     0.85900
O257        O  0.53789112  0.50476154  0.05290086    -0.64700
Ni258      Ni  0.56162399  0.48431984  0.11689588     1.27400
Ni259      Ni  0.54202478  0.58816856  0.10207644     1.26100
H260        H  0.58875447  0.60965572  0.07470991     0.40400
O261        O  0.48109258  0.96043341  0.04708555    -0.79500
O262        O  0.44016435  0.97504399  0.12613105    -0.64200
O263        O  0.44356878  0.98686773  0.07762348    -1.10800
C264        C  0.63553875  0.14166536  0.08890858     1.07400
O265        O  0.47507615  0.06896170  0.12948252    -0.77400
O266        O  0.52186987  0.14639327  0.10354119    -0.65000
Ni267      Ni  0.42371041  0.91919312  0.06430411     1.34900
C268        C  0.50233035  0.14347120  0.08859936     0.86100
O269        O  0.36186008  0.91826802  0.10236713    -0.78000
O270        O  0.36143366  0.86868504  0.07929833    -0.88200
C271        C  0.44309720  0.01693700  0.13445598     0.85700
O272        O  0.47627056  0.90171958  0.07551743    -0.66400
O273        O  0.61971966  0.13900578  0.10445354    -0.85700
C274        C  0.48313484  0.89847310  0.09140316     0.86500
C275        C  0.33865127  0.87353616  0.09300345     1.08100
H276        H  0.54394761  0.02100737  0.10311925     0.39900
O277        O  0.51984270  0.03771331  0.10083102    -1.08400
O278        O  0.49648384  0.10565464  0.07758166    -0.65000
Ni279      Ni  0.52229884  0.04931568  0.07673820     1.26300
O280        O  0.46601223  0.92100546  0.10267046    -0.65300
O281        O  0.60193608  0.11104373  0.07681151    -0.77600
C282        C  0.50743889  0.01264536  0.04214677     0.85900
O283        O  0.52164233  0.05504044  0.05225584    -0.64700
Ni284      Ni  0.54632356  0.10145928  0.11616243     1.27400
Ni285      Ni  0.44104262  0.97805587  0.10191293     1.26100
H286        H  0.41779578  0.00082748  0.07441187     0.40400
O287        O  0.22369914  0.84055075  0.28873110    -0.79500
O288        O  0.25862076  0.88092603  0.20849067    -0.64200
O289        O  0.25428746  0.89467361  0.25683141    -1.10800
C290        C  0.06157605  0.85435659  0.24454880     1.07400
O291        O  0.22302303  0.93890294  0.20417991    -0.77400
O292        O  0.17688187  0.97237422  0.22950349    -0.65000
Ni293      Ni  0.27529112  0.84852872  0.27054313     1.34900
C294        C  0.19415875  0.98924170  0.24460714     0.86100
O295        O  0.33667289  0.90656682  0.23259841    -0.78000
O296        O  0.33307712  0.85283199  0.25481583    -0.88200
C297        C  0.25565128  0.91906900  0.19972946     0.85700
O298        O  0.21760692  0.77791396  0.26065875    -0.66400
O299        O  0.07827837  0.86772384  0.22908506    -0.85700
C300        C  0.21262579  0.76547827  0.24488002     0.86500
C301        C  0.35762512  0.88187076  0.24147934     1.08100
H302        H  0.15439450  0.82473405  0.23114292     0.39900
O303        O  0.17807989  0.86568638  0.23330349    -1.08400
O304        O  0.19843233  0.95757170  0.25603513    -0.65000
Ni305      Ni  0.17450430  0.87605534  0.25726519     1.26300
O306        O  0.23285060  0.80372763  0.23312924    -0.65300
O307        O  0.09434419  0.85638708  0.25675934    -0.77600
C308        C  0.19131534  0.86107618  0.29248658     0.85900
O309        O  0.17319048  0.88362232  0.28159172    -0.64700
Ni310      Ni  0.15181016  0.90178402  0.21747099     1.27400
Ni311      Ni  0.25717529  0.88582889  0.23267349     1.26100
H312        H  0.27934036  0.93481799  0.25978692     0.40400
O313        O  0.81674369  0.62510866  0.71418239    -0.79500
O314        O  0.77137527  0.63537920  0.79297249    -0.64200
O315        O  0.77756670  0.65025081  0.74457308    -1.10800
C316        C  0.96961469  0.80325846  0.75659077     1.07400
O317        O  0.80833098  0.72938113  0.79696046    -0.77400
O318        O  0.85616700  0.80808561  0.77131257    -0.65000
Ni319      Ni  0.75802053  0.58325362  0.73096227     1.34900
C320        C  0.83799995  0.80650006  0.75625464     0.86100
O321        O  0.69408282  0.58102708  0.76872546    -0.78000
O322        O  0.69458304  0.53233061  0.74553988    -0.88200
C323        C  0.77512156  0.67713472  0.80156127     0.85700
O324        O  0.80958987  0.56476689  0.74229643    -0.66400
O325        O  0.95359162  0.80014269  0.77213781    -0.85700
C326        C  0.81542107  0.56059449  0.75818588     0.86500
C327        C  0.67103834  0.53682364  0.75913114     1.08100
H328        H  0.87651596  0.68156468  0.77041432     0.39900
O329        O  0.85299141  0.69893595  0.76815145    -1.08400
O330        O  0.83204630  0.76902330  0.74512438    -0.65000
Ni331      Ni  0.85656586  0.71188719  0.74412196     1.26300
O332        O  0.79744449  0.58225847  0.76944940    -0.65300
O333        O  0.93627414  0.77276878  0.74446551    -0.77600
C334        C  0.84303313  0.67754530  0.70950018     0.85900
O335        O  0.85684507  0.71931498  0.71977347    -0.64700
Ni336      Ni  0.87981543  0.76210896  0.78373136     1.27400
Ni337      Ni  0.77365089  0.64005789  0.76879080     1.26100
H338        H  0.75233803  0.66481729  0.74131496     0.40400
O339        O  0.52838076  0.48192965  0.95260344    -0.79500
O340        O  0.58833690  0.54495137  0.87538746    -0.64200
O341        O  0.57744175  0.55193817  0.92373099    -1.10800
C342        C  0.38938539  0.52153865  0.91022906     1.07400
O343        O  0.55466343  0.60469716  0.87103255    -0.77400
O344        O  0.50846332  0.63850184  0.89631652    -0.65000
Ni345      Ni  0.59385779  0.50357074  0.93798938     1.34900
C346        C  0.52490039  0.65387972  0.91156366     0.86100
O347        O  0.66203374  0.56236981  0.90038307    -0.78000
O348        O  0.66232911  0.52066671  0.92523281    -0.88200
C349        C  0.58658883  0.58388457  0.86668101     0.85700
O350        O  0.54860386  0.43371109  0.92566731    -0.66400
O351        O  0.40752030  0.53569438  0.89488419    -0.85700
C352        C  0.54041262  0.42414854  0.90979356     0.86500
C353        C  0.68568248  0.54506292  0.91116241     1.08100
H354        H  0.48034305  0.48887689  0.89708932     0.39900
O355        O  0.50512640  0.52946776  0.89956419    -1.08400
O356        O  0.52715403  0.62056729  0.92285126    -0.65000
Ni357      Ni  0.49960810  0.53801215  0.92360140     1.26300
O358        O  0.55582266  0.46388654  0.89867798    -0.65300
O359        O  0.42077198  0.52198398  0.92261296    -0.77600
C360        C  0.50828036  0.51301753  0.95803144     0.85900
O361        O  0.49791430  0.54427921  0.94804217    -0.64700
Ni362      Ni  0.48218930  0.56862755  0.88379905     1.27400
Ni363      Ni  0.58357157  0.54616146  0.89958445     1.26100
H364        H  0.60342125  0.59152337  0.92705917     0.40400
O365        O  0.39662846  0.21640678  0.71558051    -0.79500
O366        O  0.38543462  0.15118439  0.79243448    -0.64200
O367        O  0.37322911  0.14448139  0.74397769    -1.10800
C368        C  0.21513961  0.17519304  0.75545307     1.07400
O369        O  0.29169691  0.09041208  0.79579326    -0.77400
O370        O  0.21413328  0.05791941  0.76984179    -0.65000
Ni371      Ni  0.43885357  0.19237957  0.73003176     1.34900
C372        C  0.21763328  0.04218060  0.75482598     0.86100
O373        O  0.44528732  0.13513186  0.76820284    -0.78000
O374        O  0.48777763  0.17258395  0.74295376    -0.88200
C375        C  0.34395826  0.11125020  0.80067306     0.85700
O376        O  0.46544307  0.26222778  0.74252374    -0.66400
O377        O  0.21771766  0.16148943  0.77094718    -0.85700
C378        C  0.46395952  0.27211565  0.75826954     0.86500
C379        C  0.48601783  0.15002918  0.75743696     1.08100
H380        H  0.33591362  0.20707055  0.76970348     0.39900
O381        O  0.32057933  0.16648293  0.76732874    -1.08400
O382        O  0.25485103  0.07519075  0.74384580    -0.65000
Ni383      Ni  0.30914678  0.15776632  0.74320974     1.26300
O384        O  0.43640491  0.23276946  0.76928399    -0.65300
O385        O  0.24609899  0.17322204  0.74332309    -0.77600
C386        C  0.34677487  0.18451582  0.70934281     0.85900
O387        O  0.30399543  0.15157151  0.71874241    -0.64700
Ni388      Ni  0.25710548  0.12737159  0.78259679     1.27400
Ni389      Ni  0.38251528  0.15040908  0.76818284     1.26100
H390        H  0.36013007  0.10487966  0.74079245     0.40400
O391        O  0.53501727  0.06965422  0.95307761    -0.79500
O392        O  0.47886321  0.05959135  0.87400102    -0.64200
O393        O  0.47181995  0.04433072  0.92246032    -1.10800
C394        C  0.50965804  0.89062704  0.90981298     1.07400
O395        O  0.42161783  0.96565591  0.86994245    -0.77400
O396        O  0.39049732  0.88731624  0.89561502    -0.65000
Ni397      Ni  0.51987886  0.11163714  0.93591242     1.34900
C398        C  0.37464294  0.88879242  0.91078500     0.86100
O399        O  0.45667363  0.11363219  0.89852391    -0.78000
O400        O  0.50908748  0.16318090  0.92111663    -0.88200
C401        C  0.44055782  0.01795822  0.86542913     0.85700
O402        O  0.58947943  0.12820770  0.92456904    -0.66400
O403        O  0.49534322  0.89339090  0.89440320    -0.85700
C404        C  0.59912881  0.13376731  0.90864224     0.86500
C405        C  0.47971339  0.15848947  0.90783697     1.08100
H406        H  0.53827861  0.01286209  0.89611533     0.39900
O407        O  0.49750997  0.99556993  0.89858796    -1.08400
O408        O  0.40727882  0.92543300  0.92196959    -0.65000
Ni409      Ni  0.48925621  0.98260225  0.92267408     1.26300
O410        O  0.55907484  0.11270150  0.89746712    -0.65300
O411        O  0.50810521  0.92164017  0.92201651    -0.77600
C412        C  0.51056439  0.01702992  0.95755739     0.85900
O413        O  0.48366083  0.97530237  0.94714148    -0.64700
Ni414      Ni  0.46005367  0.93230233  0.88303192     1.27400
Ni415      Ni  0.47727871  0.05465390  0.89821646     1.26100
H416        H  0.43213846  0.02976148  0.92587424     0.40400
O417        O  0.95715642  0.47244435  0.95534625    -0.79500
O418        O  0.96322781  0.44098527  0.87486829    -0.64200
O419        O  0.98160363  0.44591054  0.92318422    -1.10800
C420        C  0.13484333  0.63791236  0.91067269     1.07400
O421        O  0.05649121  0.47466268  0.87047840    -0.77400
O422        O  0.13518088  0.51865125  0.89616005    -0.65000
Ni423      Ni  0.91366061  0.42453146  0.93662272     1.34900
C424        C  0.13584277  0.50475450  0.91159540     0.86100
O425        O  0.91069735  0.36322694  0.89906703    -0.78000
O426        O  0.85950448  0.36972855  0.92041543    -0.88200
C427        C  0.00378371  0.44277239  0.86608684     0.85700
O428        O  0.90459852  0.48513897  0.92721150    -0.66400
O429        O  0.13347628  0.61964806  0.89547572    -0.85700
C430        C  0.89653100  0.49004691  0.91147408     0.86500
C431        C  0.86434080  0.34355355  0.90756130     1.08100
H432        H  0.01269864  0.54552629  0.89694593     0.39900
O433        O  0.02938716  0.52156065  0.89947175    -1.08400
O434        O  0.10113278  0.50373482  0.92299609    -0.65000
Ni435      Ni  0.04219940  0.52623616  0.92352911     1.26300
O436        O  0.91284986  0.46837970  0.89962541    -0.65300
O437        O  0.10183232  0.60661916  0.92277411    -0.77600
C438        C  0.00952211  0.50741669  0.95901790     0.85900
O439        O  0.05002585  0.52903211  0.94799894    -0.64700
Ni440      Ni  0.09221994  0.54600142  0.88384409     1.27400
Ni441      Ni  0.96985889  0.44274383  0.89902995     1.26100
H442        H  0.99701464  0.42121279  0.92622147     0.40400
O443        O  0.81171998  0.19989407  0.71628000    -0.79500
O444        O  0.86811805  0.24884061  0.79371059    -0.64200
O445        O  0.87994091  0.24685559  0.74532607    -1.10800
C446        C  0.85402627  0.05937811  0.75644574     1.07400
O447        O  0.93198042  0.21996382  0.79713895    -0.77400
O448        O  0.96785502  0.17682827  0.77137118    -0.65000
Ni449      Ni  0.83300276  0.26478701  0.73105441     1.34900
C450        C  0.98365914  0.19606035  0.75635964     0.86100
O451        O  0.88518507  0.32591256  0.76985623    -0.78000
O452        O  0.85014316  0.33214944  0.74433313    -0.88200
C453        C  0.90897020  0.24944999  0.80201920     0.85700
O454        O  0.76208888  0.21958572  0.74282409    -0.66400
O455        O  0.86612819  0.07541587  0.77203020    -0.85700
C456        C  0.75059457  0.20689767  0.75844100     0.86500
C457        C  0.87096447  0.35208202  0.75903982     1.08100
H458        H  0.81695722  0.14497270  0.77051361     0.39900
O459        O  0.85751315  0.17121902  0.76836411    -1.08400
O460        O  0.95078798  0.20003501  0.74534371    -0.65000
Ni461      Ni  0.86828723  0.16999698  0.74428799     1.26300
O462        O  0.78878334  0.21831282  0.76982050    -0.65300
O463        O  0.85518008  0.09204254  0.74431028    -0.77600
C464        C  0.84535882  0.18395675  0.71015310     0.85900
O465        O  0.87686279  0.17280801  0.71979979    -0.64700
Ni466      Ni  0.89752543  0.14853559  0.78382790     1.27400
Ni467      Ni  0.87148960  0.24845125  0.76948492     1.26100
H468        H  0.91972768  0.27413602  0.74253524     0.40400
C469        C  0.98908737  0.40394243  0.85170049    -0.17100
C470        C  0.97323796  0.36795946  0.84046378     0.06900
C471        C  0.95203533  0.32441785  0.82762972     0.08800
C472        C  0.93270533  0.28838787  0.81639261    -0.18000
C473        C  0.17801993  0.69723455  0.91431745    -0.17100
C474        C  0.21852708  0.74583054  0.91613572     0.06900
C475        C  0.27008682  0.80065606  0.91667993     0.08800
C476        C  0.31687755  0.84414423  0.91533750    -0.18000
C477        C  0.65822555  0.16849840  0.90322834    -0.17100
C478        C  0.70860244  0.20316889  0.90080596     0.06900
C479        C  0.76671427  0.24868862  0.90047108     0.08800
C480        C  0.81385374  0.29078470  0.90243302    -0.18000
C481        C  0.04120663  0.21028020  0.75153807    -0.17100
C482        C  0.08683463  0.21188342  0.74960811     0.06900
C483        C  0.13578940  0.20460879  0.74970403     0.08800
C484        C  0.17383385  0.19313556  0.75153209    -0.18000
C485        C  0.69083885  0.17985555  0.76328719    -0.17100
C486        C  0.63976008  0.16202028  0.76490388     0.06900
C487        C  0.58142300  0.14831856  0.76429409     0.08800
C488        C  0.53487886  0.14419118  0.76197937    -0.18000
C489        C  0.35731198  0.08639017  0.81514169    -0.17100
C490        C  0.37294278  0.06670898  0.82655154     0.06900
C491        C  0.39481000  0.04587808  0.83961544     0.08800
C492        C  0.41522994  0.03093406  0.85099595    -0.18000
C493        C  0.86341962  0.51729558  0.90715851    -0.17100
C494        C  0.82946149  0.53432483  0.90547854     0.06900
C495        C  0.78389438  0.54694178  0.90553907     0.08800
C496        C  0.74087224  0.55060938  0.90722396    -0.18000
C497        C  0.18121179  0.49279162  0.91615368    -0.17100
C498        C  0.22562902  0.49110354  0.91712740     0.06900
C499        C  0.28122046  0.49636939  0.91595253     0.08800
C500        C  0.33005482  0.50556652  0.91376510    -0.18000
C501        C  0.47525479  0.20807982  0.90312841    -0.17100
C502        C  0.48052386  0.25535380  0.90135839     0.06900
C503        C  0.49544414  0.31411761  0.90180981     0.08800
C504        C  0.51382259  0.36496373  0.90429950    -0.18000
C505        C  0.53848212  0.71178340  0.91606199    -0.17100
C506        C  0.54105935  0.75830360  0.91704764     0.06900
C507        C  0.53621713  0.80887188  0.91589228     0.08800
C508        C  0.52679776  0.84832324  0.91363245    -0.18000
C509        C  0.17459418  0.98405106  0.75020636    -0.17100
C510        C  0.13162782  0.93693293  0.74906209     0.06900
C511        C  0.07706247  0.88553825  0.75014493     0.08800
C512        C  0.02864562  0.84557602  0.75250935    -0.18000
C513        C  0.49694894  0.33131701  0.76371608    -0.17100
C514        C  0.53001722  0.38219436  0.76593322     0.06900
C515        C  0.57445372  0.44074488  0.76595672     0.08800
C516        C  0.61675865  0.48764278  0.76391274    -0.18000
C517        C  0.82658450  0.85211968  0.75167909    -0.17100
C518        C  0.82526593  0.89653123  0.75015861     0.06900
C519        C  0.83057967  0.95211921  0.75056961     0.08800
C520        C  0.83930656  0.00082552  0.75245832    -0.18000
C521        C  0.87593074  0.40631905  0.76369085    -0.17100
C522        C  0.87171730  0.44878411  0.76573978     0.06900
C523        C  0.85840833  0.49368957  0.76570243     0.08800
C524        C  0.84126335  0.52722667  0.76347812    -0.18000
C525        C  0.73741438  0.66421349  0.81611711    -0.17100
C526        C  0.70237921  0.64871761  0.82759393     0.06900
C527        C  0.66006308  0.62730002  0.84074996     0.08800
C528        C  0.62496782  0.60770926  0.85221299    -0.18000
C529        C  0.51405066  0.00677683  0.97545704    -0.17100
C530        C  0.51873901  0.00975395  0.99084696     0.06900
C531        C  0.52242181  0.01818695  0.00880266     0.08800
C532        C  0.52036294  0.02166438  0.02417018    -0.18000
C533        C  0.40586153  0.00421150  0.14911857    -0.17100
C534        C  0.37106060  0.98795931  0.16066919     0.06900
C535        C  0.32884827  0.96483610  0.17383129     0.08800
C536        C  0.29380577  0.94375087  0.18526029    -0.18000
C537        C  0.49753671  0.51121179  0.97608799    -0.17100
C538        C  0.49676629  0.50732615  0.99147742     0.06900
C539        C  0.50135328  0.50380191  0.00941600     0.08800
C540        C  0.50629556  0.50568492  0.02478196    -0.18000
C541        C  0.54654631  0.74566192  0.09700488    -0.17100
C542        C  0.54121764  0.78759283  0.09900165     0.06900
C543        C  0.52680879  0.83187881  0.09889766     0.08800
C544        C  0.50924300  0.86517624  0.09668421    -0.18000
C545        C  0.48864101  0.18770016  0.08413058    -0.17100
C546        C  0.48520849  0.23111393  0.08298505     0.06900
C547        C  0.48870650  0.28593227  0.08386519     0.08800
C548        C  0.49709462  0.33448064  0.08597010    -0.18000
C549        C  0.00230434  0.83796994  0.24827086    -0.17100
C550        C  0.95350108  0.82960857  0.24961910     0.06900
C551        C  0.89852224  0.82592190  0.24928550     0.08800
C552        C  0.85507607  0.82889972  0.24734113    -0.18000
C553        C  0.52928236  0.84666328  0.23592578    -0.17100
C554        C  0.49575819  0.86385610  0.23371438     0.06900
C555        C  0.45144138  0.87805794  0.23378696     0.08800
C556        C  0.41005097  0.88393357  0.23614511    -0.18000
C557        C  0.66679599  0.74590518  0.18296124    -0.17100
C558        C  0.64939228  0.70925357  0.17196151     0.06900
C559        C  0.62538629  0.66443693  0.15963704     0.08800
C560        C  0.60371098  0.62739423  0.14880058    -0.18000
C561        C  0.19395170  0.18287442  0.24709193    -0.17100
C562        C  0.20330458  0.14334681  0.24912389     0.06900
C563        C  0.20848719  0.09302086  0.24996440     0.08800
C564        C  0.20650922  0.04686432  0.24884158    -0.18000
C565        C  0.15209189  0.54940908  0.23871095    -0.17100
C566        C  0.15648752  0.59647979  0.23734231     0.06900
C567        C  0.16946049  0.65471200  0.23801404     0.08800
C568        C  0.18625586  0.70540998  0.24028360    -0.18000
C569        C  0.98768450  0.18359417  0.24945913    -0.17100
C570        C  0.94149821  0.13946613  0.25063754     0.06900
C571        C  0.89141248  0.08383653  0.24956311     0.08800
C572        C  0.85236421  0.03492953  0.24718373    -0.18000
C573        C  0.33504335  0.50504127  0.23670720    -0.17100
C574        C  0.38599599  0.53741920  0.23427946     0.06900
C575        C  0.44489628  0.58114835  0.23383231     0.08800
C576        C  0.49224836  0.62318545  0.23555185    -0.18000
C577        C  0.00648129  0.51723432  0.02555318    -0.17100
C578        C  0.01057481  0.52031856  0.01016553     0.06900
C579        C  0.01891152  0.52338962  0.99223480     0.08800
C580        C  0.02119588  0.52115330  0.97685386    -0.18000
C581        C  0.36173505  0.52139844  0.09645439    -0.17100
C582        C  0.31099948  0.50393483  0.09875759     0.06900
C583        C  0.25260286  0.49013223  0.09902913     0.08800
C584        C  0.20561629  0.48543709  0.09719824    -0.18000
C585        C  0.70438291  0.54058959  0.08454995    -0.17100
C586        C  0.75045262  0.54243135  0.08327495     0.06900
C587        C  0.80049257  0.53671771  0.08409365     0.08800
C588        C  0.83972844  0.52697063  0.08622704    -0.18000
C589        C  0.28493558  0.82433258  0.09814357    -0.17100
C590        C  0.24255207  0.77763554  0.10035700     0.06900
C591        C  0.19743391  0.71941740  0.10034345     0.08800
C592        C  0.16374410  0.66873793  0.09807643    -0.18000
C593        C  0.69484680  0.18347600  0.08493424    -0.17100
C594        C  0.74387750  0.22312052  0.08328869     0.06900
C595        C  0.79903730  0.27403966  0.08330371     0.08800
C596        C  0.84229575  0.32060677  0.08514720    -0.18000
C597        C  0.08667108  0.37120790  0.18572915    -0.17100
C598        C  0.06561774  0.38634121  0.17459533     0.06900
C599        C  0.04315522  0.40686454  0.16163596     0.08800
C600        C  0.02707786  0.42588908  0.15017058    -0.18000
C601        C  0.85076396  0.67656920  0.64305681    -0.17100
C602        C  0.85534231  0.67814787  0.65839758     0.06900
C603        C  0.85882014  0.68529223  0.67631970     0.08800
C604        C  0.85644745  0.68770226  0.69165968    -0.18000
C605        C  0.67529898  0.85594212  0.35636293    -0.17100
C606        C  0.67828534  0.85908645  0.34094610     0.06900
C607        C  0.68689816  0.86197505  0.32300743     0.08800
C608        C  0.69055632  0.86033207  0.30763924    -0.18000
C609        C  0.75429135  0.71119648  0.51890732    -0.17100
C610        C  0.73651124  0.72699356  0.50703520     0.06900
C611        C  0.71737833  0.74845245  0.49340516     0.08800
C612        C  0.70306926  0.76806550  0.48164709    -0.18000
C613        C  0.35621369  0.19406159  0.64256546    -0.17100
C614        C  0.35330547  0.19564512  0.65793140     0.06900
C615        C  0.34482960  0.19174229  0.67583731     0.08800
C616        C  0.34056327  0.18728903  0.69119137    -0.18000
C617        C  0.15265238  0.95854409  0.57010274    -0.17100
C618        C  0.10496206  0.91713377  0.56828263     0.06900
C619        C  0.04609167  0.87347073  0.56879186     0.08800
C620        C  0.99536946  0.84067011  0.57139490    -0.18000
C621        C  0.51844380  0.36663929  0.58150566    -0.17100
C622        C  0.55767461  0.41580585  0.58356492     0.06900
C623        C  0.60728280  0.47211172  0.58437082     0.08800
C624        C  0.65265026  0.51730701  0.58315056    -0.18000
C625        C  0.17593641  0.85795194  0.31018599    -0.17100
C626        C  0.17153775  0.85243171  0.32550468     0.06900
C627        C  0.17301970  0.84638596  0.34341358     0.08800
C628        C  0.17640888  0.84540799  0.35876977    -0.18000
C629        C  0.03457960  0.86376426  0.43057603    -0.17100
C630        C  0.98384313  0.84614651  0.43276848     0.06900
C631        C  0.92527113  0.83129309  0.43247961     0.08800
C632        C  0.87819102  0.82546857  0.42995796    -0.18000
C633        C  0.37928029  0.88189459  0.41815931    -0.17100
C634        C  0.42636078  0.88606130  0.41666826     0.06900
C635        C  0.47801839  0.88309307  0.41696405     0.08800
C636        C  0.51840015  0.87481321  0.41862699    -0.18000
C637        C  0.33011760  0.07558488  0.51841350    -0.17100
C638        C  0.31439540  0.03986234  0.50718148     0.06900
C639        C  0.29329320  0.99725830  0.49420418     0.08800
C640        C  0.27406774  0.96251101  0.48270742    -0.18000
C641        C  0.19435053  0.36449707  0.35756319    -0.17100
C642        C  0.19514204  0.36037726  0.34220303     0.06900
C643        C  0.19068603  0.35047112  0.32433981     0.08800
C644        C  0.18645189  0.34610826  0.30897295    -0.18000
C645        C  0.22421562  0.08624375  0.42811362    -0.17100
C646        C  0.21993381  0.12869148  0.43030847     0.06900
C647        C  0.20563008  0.17300493  0.43085354     0.08800
C648        C  0.18730541  0.20587731  0.42918204    -0.18000
C649        C  0.16021683  0.52467517  0.41852196    -0.17100
C650        C  0.15750386  0.56838964  0.41721256     0.06900
C651        C  0.16231972  0.62374245  0.41776417     0.08800
C652        C  0.17159295  0.67264466  0.41962511    -0.18000
C653        C  0.36746959  0.52688108  0.41868675    -0.17100
C654        C  0.41576993  0.56760580  0.41670893     0.06900
C655        C  0.47053111  0.61905844  0.41612706     0.08800
C656        C  0.51413234  0.66566822  0.41745915    -0.18000
C657        C  0.95935892  0.16183278  0.42970113    -0.17100
C658        C  0.91630593  0.11520577  0.43116988     0.06900
C659        C  0.87078332  0.05726124  0.43041182     0.08800
C660        C  0.83685488  0.00681583  0.42786941    -0.18000
C661        C  0.84332366  0.19599042  0.64333523    -0.17100
C662        C  0.84056188  0.18957092  0.65866672     0.06900
C663        C  0.84329064  0.18185487  0.67650207     0.08800
C664        C  0.84603343  0.17882097  0.69185744    -0.18000
C665        C  0.87445462  0.38702966  0.58162600    -0.17100
C666        C  0.87589531  0.43297314  0.58274950     0.06900
C667        C  0.87019223  0.48307744  0.58204024     0.08800
C668        C  0.86046880  0.52246811  0.58019938    -0.18000
C669        C  0.85732254  0.04590825  0.57298906    -0.17100
C670        C  0.83994637  0.99491540  0.57108752     0.06900
C671        C  0.82494079  0.93599956  0.57112658     0.08800
C672        C  0.81813145  0.88808496  0.57301812    -0.18000
C673        C  0.51994963  0.16130467  0.58258141    -0.17100
C674        C  0.56483074  0.16052671  0.58386275     0.06900
C675        C  0.62112108  0.16708425  0.58314705     0.08800
C676        C  0.67041126  0.17722596  0.58115914    -0.18000
C677        C  0.08044528  0.22604307  0.57034649    -0.17100
C678        C  0.12135462  0.21900491  0.56844071     0.06900
C679        C  0.16422474  0.20270415  0.56876367     0.08800
C680        C  0.19637667  0.18383733  0.57108171    -0.18000
C681        C  0.96382637  0.28340966  0.51823364    -0.17100
C682        C  0.99936434  0.30256876  0.50685644     0.06900
C683        C  0.04229335  0.32310803  0.49383986     0.08800
C684        C  0.07770087  0.33809666  0.48245596    -0.18000
loop_ 
_geom_bond_atom_site_label_1 
_geom_bond_atom_site_label_2 
_geom_bond_distance 
_geom_bond_site_symmetry_2 
_ccdc_geom_bond_type 
O1           Ni7   1.914       .  S
O1           C22   1.267       .  A
O2          Ni25   1.898       .  S
O2           C11   1.263       .  A
O3           Ni7   1.919       .  S
O3          Ni25   1.913       .  S
O3          Ni19   1.929       .  S
O3           H26   0.966       .  S
C4           O21   1.279       .  A
C4           O13   1.279       .  A
C4          C676   1.449       .  S
O5          Ni24   1.954       .  S
O5           C11   1.275       .  A
O6          Ni24   1.904       .  S
O6            C8   1.268       .  A
Ni7          O10   1.928   1_655  S
Ni7          O12   1.902       .  S
C8           O18   1.277       .  A
C8          C665   1.444       .  S
O9          Ni25   1.912   1_455  S
O9           C15   1.267       .  A
O10          C15   1.269       .  A
C11         C681   1.446       .  S
O12          C14   1.267       .  A
O13         Ni24   1.936       .  S
C14          O20   1.276       .  A
C14         C669   1.439       .  S
C15         C677   1.436       .  S
H16          O17   0.966       .  S
O17         Ni25   1.906       .  S
O17         Ni19   1.909       .  S
O17         Ni24   1.910       .  S
O18         Ni19   1.944       .  S
Ni19         O23   1.925       .  S
Ni19         O21   1.932       .  S
O20         Ni25   1.951       .  S
C22          O23   1.274       .  A
C22         C661   1.439       .  S
O27         Ni33   1.917       .  S
O27          C48   1.267       .  A
O28         Ni51   1.900       .  S
O28          C37   1.263       .  A
O29         Ni33   1.915       .  S
O29         Ni51   1.911       .  S
O29         Ni45   1.920       .  S
O29          H52   0.966       .  S
C30          O47   1.279       .  A
C30          O39   1.278       .  A
C30         C653   1.445       .  S
O31         Ni50   1.951       .  S
O31          C37   1.274       .  A
O32         Ni50   1.904       .  S
O32          C34   1.267       .  A
Ni33         O36   1.927       .  S
Ni33         O38   1.899       .  S
C34          O44   1.275       .  A
C34         C649   1.441       .  S
O35         Ni51   1.910       .  S
O35          C41   1.269       .  A
O36          C41   1.271       .  A
C37         C684   1.446       .  S
O38          C40   1.265       .  A
O39         Ni50   1.931       .  S
C40          O46   1.274       .  A
C40         C648   1.437       .  S
C41         C657   1.435   1_455  S
H42          O43   0.966       .  S
O43         Ni51   1.908       .  S
O43         Ni45   1.911       .  S
O43         Ni50   1.909       .  S
O44         Ni45   1.940       .  S
Ni45         O49   1.923       .  S
Ni45         O47   1.931       .  S
O46         Ni51   1.947       .  S
C48          O49   1.273       .  A
C48         C641   1.437       .  S
O53         Ni59   1.918       .  S
O53          C74   1.265       .  A
O54         Ni77   1.895       .  S
O54          C63   1.263       .  A
O55         Ni59   1.911       .  S
O55         Ni77   1.903       .  S
O55         Ni71   1.919       .  S
O55          H78   0.966       .  S
C56          O73   1.278       .  A
C56          O65   1.278       .  A
C56         C652   1.443       .  S
O57         Ni76   1.946       .  S
O57          C63   1.274       .  A
O58         Ni76   1.906       .  S
O58          C60   1.268       .  A
Ni59         O62   1.925   1_565  S
Ni59         O64   1.900       .  S
C60          O70   1.276       .  A
C60         C633   1.443       .  S
O61         Ni77   1.919   1_545  S
O61          C67   1.274       .  A
O62          C67   1.275       .  A
C63         C640   1.438       .  S
O64          C66   1.265       .  A
O65         Ni76   1.930       .  S
C66          O72   1.268       .  A
C66         C629   1.432       .  S
C67         C645   1.437       .  S
H68          O69   0.966       .  S
O69         Ni77   1.911       .  S
O69         Ni71   1.907       .  S
O69         Ni76   1.903       .  S
O70         Ni71   1.942       .  S
Ni71         O75   1.922       .  S
Ni71         O73   1.929       .  S
O72         Ni77   1.928       .  S
C74          O75   1.271       .  A
C74         C628   1.435       .  S
O79         Ni85   1.919       .  S
O79         C100   1.267       .  A
O80        Ni103   1.894       .  S
O80          C89   1.262       .  A
O81         Ni85   1.919       .  S
O81        Ni103   1.912       .  S
O81         Ni97   1.925       .  S
O81         H104   0.966       .  S
C82          O99   1.280       .  A
C82          O91   1.279       .  A
C82         C621   1.448       .  S
O83        Ni102   1.949       .  S
O83          C89   1.274       .  A
O84        Ni102   1.905       .  S
O84          C86   1.267       .  A
Ni85         O88   1.925       .  S
Ni85         O90   1.902       .  S
C86          O96   1.277       .  A
C86         C673   1.446       .  S
O87        Ni103   1.914       .  S
O87          C93   1.269       .  A
O88          C93   1.271       .  A
C89         C637   1.438       .  S
O90          C92   1.266       .  A
O91        Ni102   1.934       .  S
C92          O98   1.272       .  A
C92         C680   1.438       .  S
C93         C617   1.437   1_545  S
H94          O95   0.966       .  S
O95        Ni103   1.906       .  S
O95         Ni97   1.904       .  S
O95        Ni102   1.906       .  S
O96         Ni97   1.947       .  S
Ni97        O101   1.919       .  S
Ni97         O99   1.933       .  S
O98        Ni103   1.940       .  S
C100        O101   1.272       .  A
C100        C613   1.436       .  S
O105       Ni111   1.918       .  S
O105        C126   1.268       .  A
O106       Ni129   1.899       .  S
O106        C115   1.262       .  A
O107       Ni111   1.918       .  S
O107       Ni129   1.912       .  S
O107       Ni123   1.925       .  S
O107        H130   0.966       .  S
C108        O125   1.280       .  A
C108        O117   1.278       .  A
C108        C636   1.445       .  S
O109       Ni128   1.951       .  S
O109        C115   1.274       .  A
O110       Ni128   1.905       .  S
O110        C112   1.268       .  A
Ni111       O114   1.929       .  S
Ni111       O116   1.902       .  S
C112        O122   1.276       .  A
C112        C656   1.443       .  S
O113       Ni129   1.903       .  S
O113        C119   1.265       .  A
O114        C119   1.270       .  A
C115        C612   1.445       .  S
O116        C118   1.267       .  A
O117       Ni128   1.930       .  S
C118        O124   1.274       .  A
C118        C660   1.436   1_565  S
C119        C632   1.432       .  S
H120        O121   0.966       .  S
O121       Ni129   1.902       .  S
O121       Ni123   1.910       .  S
O121       Ni128   1.908       .  S
O122       Ni123   1.941       .  S
Ni123       O127   1.925       .  S
Ni123       O125   1.933       .  S
O124       Ni129   1.946       .  S
C126        O127   1.274       .  A
C126        C605   1.439       .  S
O131       Ni137   1.919       .  S
O131        C152   1.267       .  A
O132       Ni155   1.900       .  S
O132        C141   1.264       .  A
O133       Ni137   1.920       .  S
O133       Ni155   1.913       .  S
O133       Ni149   1.925       .  S
O133        H156   0.966       .  S
C134        O151   1.277       .  A
C134        O143   1.279       .  A
C134        C668   1.446       .  S
O135       Ni154   1.951       .  S
O135        C141   1.275       .  A
O136       Ni154   1.906       .  S
O136        C138   1.268       .  A
Ni137       O140   1.929       .  S
Ni137       O142   1.901       .  S
C138        O148   1.278       .  A
C138        C624   1.446       .  S
O139       Ni155   1.914       .  S
O139        C145   1.270       .  A
O140        C145   1.271       .  A
C141        C609   1.445       .  S
O142        C144   1.266       .  A
O143       Ni154   1.934       .  S
C144        O150   1.274       .  A
C144        C620   1.437       .  S
C145        C672   1.439       .  S
H146        O147   0.966       .  S
O147       Ni155   1.909       .  S
O147       Ni149   1.906       .  S
O147       Ni154   1.906       .  S
O148       Ni149   1.946       .  S
Ni149       O153   1.915       .  S
Ni149       O151   1.929       .  S
O150       Ni155   1.945       .  S
C152        O153   1.271       .  A
C152        C601   1.433       .  S
O157       Ni163   1.920       .  S
O157        C178   1.266       .  A
O158       Ni181   1.899       .  S
O158        C167   1.264       .  A
O159       Ni163   1.914       .  S
O159       Ni181   1.908       .  S
O159       Ni175   1.918   1_455  S
O159        H182   0.966       .  S
C160        O177   1.279       .  A
C160        O169   1.279       .  A
C160        C588   1.444       .  S
O161       Ni180   1.952       .  S
O161        C167   1.276   1_655  A
O162       Ni180   1.907       .  S
O162        C164   1.268       .  A
Ni163       O166   1.925       .  S
Ni163       O168   1.901       .  S
C164        O174   1.275       .  A
C164        C596   1.442       .  S
O165       Ni181   1.914       .  S
O165        C171   1.272       .  A
O166        C171   1.273       .  A
C167        C600   1.444       .  S
O168        C170   1.265       .  A
O169       Ni180   1.932       .  S
C170        O176   1.271       .  A
C170        C592   1.436       .  S
C171        C584   1.435       .  S
H172        O173   0.966   1_455  S
O173       Ni181   1.908   1_655  S
O173       Ni175   1.908       .  S
O173       Ni180   1.904       .  S
O174       Ni175   1.939       .  S
Ni175       O179   1.923       .  S
Ni175       O177   1.931       .  S
O176       Ni181   1.937       .  S
C178        O179   1.272   1_455  A
C178        C577   1.438       .  S
O183       Ni189   1.920       .  S
O183        C204   1.266       .  A
O184       Ni207   1.899       .  S
O184        C193   1.264       .  A
O185       Ni189   1.914       .  S
O185       Ni207   1.910       .  S
O185       Ni201   1.920       .  S
O185        H208   0.966       .  S
C186        O203   1.279       .  A
C186        O195   1.280       .  A
C186        C561   1.444       .  S
O187       Ni206   1.951       .  S
O187        C193   1.275       .  A
O188       Ni206   1.904       .  S
O188        C190   1.267       .  A
Ni189       O192   1.926       .  S
Ni189       O194   1.901       .  S
C190        O200   1.276       .  A
C190        C569   1.442   1_455  S
O191       Ni207   1.916       .  S
O191        C197   1.272       .  A
O192        C197   1.272       .  A
C193        C597   1.444       .  S
O194        C196   1.266       .  A
O195       Ni206   1.933       .  S
C196        O202   1.273       .  A
C196        C573   1.438       .  S
C197        C565   1.438       .  S
H198        O199   0.966       .  S
O199       Ni207   1.908       .  S
O199       Ni201   1.906       .  S
O199       Ni206   1.903       .  S
O200       Ni201   1.942       .  S
Ni201       O205   1.922       .  S
Ni201       O203   1.931       .  S
O202       Ni207   1.941       .  S
C204        O205   1.272       .  A
C204        C644   1.438       .  S
O209       Ni215   1.920       .  S
O209        C230   1.267       .  A
O210       Ni233   1.893       .  S
O210        C219   1.261       .  A
O211       Ni215   1.916       .  S
O211       Ni233   1.911       .  S
O211       Ni227   1.919       .  S
O211        H234   0.966       .  S
C212        O229   1.278       .  A
C212        O221   1.279       .  A
C212        C572   1.444   1_565  S
O213       Ni232   1.951       .  S
O213        C219   1.275       .  A
O214       Ni232   1.908       .  S
O214        C216   1.268       .  A
Ni215       O218   1.924       .  S
Ni215       O220   1.902       .  S
C216        O226   1.276       .  A
C216        C552   1.444       .  S
O217       Ni233   1.916       .  S
O217        C223   1.271       .  A
O218        C223   1.272       .  A
C219        C557   1.439       .  S
O220        C222   1.266       .  A
O221       Ni232   1.933       .  S
C222        O228   1.270       .  A
C222        C553   1.435       .  S
C223        C576   1.437       .  S
H224        O225   0.966       .  S
O225       Ni233   1.908       .  S
O225       Ni227   1.908       .  S
O225       Ni232   1.908       .  S
O226       Ni227   1.941       .  S
Ni227       O231   1.923       .  S
Ni227       O229   1.927       .  S
O228       Ni233   1.935       .  S
C230        O231   1.272       .  A
C230        C608   1.439       .  S
O235       Ni241   1.918       .  S
O235        C256   1.266       .  A
O236       Ni259   1.894       .  S
O236        C245   1.261       .  A
O237       Ni241   1.919       .  S
O237       Ni259   1.913       .  S
O237       Ni253   1.924       .  S
O237        H260   0.966       .  S
C238        O255   1.278       .  A
C238        O247   1.279       .  A
C238        C548   1.445       .  S
O239       Ni258   1.949       .  S
O239        C245   1.274       .  A
O240       Ni258   1.902       .  S
O240        C242   1.267       .  A
Ni241       O244   1.925       .  S
Ni241       O246   1.900       .  S
C242        O252   1.276       .  A
C242        C585   1.442       .  S
O243       Ni259   1.914       .  S
O243        C249   1.269       .  A
O244        C249   1.270       .  A
C245        C560   1.439       .  S
O246        C248   1.266       .  A
O247       Ni258   1.933       .  S
C248        O254   1.272       .  A
C248        C581   1.435       .  S
C249        C541   1.438       .  S
H250        O251   0.966       .  S
O251       Ni259   1.907       .  S
O251       Ni253   1.908       .  S
O251       Ni258   1.909       .  S
O252       Ni253   1.943       .  S
Ni253       O257   1.921       .  S
Ni253       O255   1.929       .  S
O254       Ni259   1.938       .  S
C256        O257   1.272       .  A
C256        C540   1.438       .  S
O261       Ni267   1.921       .  S
O261        C282   1.268   1_565  A
O262       Ni285   1.897       .  S
O262        C271   1.263   1_565  A
O263       Ni267   1.917       .  S
O263       Ni285   1.913       .  S
O263       Ni279   1.923   1_565  S
O263        H286   0.966   1_565  S
C264        O281   1.279       .  A
C264        O273   1.278       .  A
C264        C593   1.443       .  S
O265       Ni284   1.951       .  S
O265        C271   1.275       .  A
O266       Ni284   1.905       .  S
O266        C268   1.267       .  A
Ni267       O270   1.928       .  S
Ni267       O272   1.901       .  S
C268        O278   1.277       .  A
C268        C545   1.444       .  S
O269       Ni285   1.909       .  S
O269        C275   1.268       .  A
O270        C275   1.271       .  A
C271        C533   1.443       .  S
O272        C274   1.266       .  A
O273       Ni284   1.929       .  S
C274        O280   1.274       .  A
C274        C544   1.438       .  S
C275        C589   1.436       .  S
H276        O277   0.966       .  S
O277       Ni285   1.903   1_545  S
O277       Ni279   1.907       .  S
O277       Ni284   1.906       .  S
O278       Ni279   1.945       .  S
Ni279       O283   1.923       .  S
Ni279       O281   1.932       .  S
O280       Ni285   1.946       .  S
C282        O283   1.274       .  A
C282        C532   1.440       .  S
O287       Ni293   1.917       .  S
O287        C308   1.268       .  A
O288       Ni311   1.899       .  S
O288        C297   1.263       .  A
O289       Ni293   1.918       .  S
O289       Ni311   1.912       .  S
O289       Ni305   1.931       .  S
O289        H312   0.966       .  S
C290        O307   1.279       .  A
C290        O299   1.278       .  A
C290        C549   1.445       .  S
O291       Ni310   1.948       .  S
O291        C297   1.274       .  A
O292       Ni310   1.904       .  S
O292        C294   1.267       .  A
Ni293       O296   1.932       .  S
Ni293       O298   1.903       .  S
C294        O304   1.275       .  A
C294        C564   1.442   1_565  S
O295       Ni311   1.907       .  S
O295        C301   1.266       .  A
O296        C301   1.270       .  A
C297        C536   1.443       .  S
O298        C300   1.268       .  A
O299       Ni310   1.929       .  S
C300        O306   1.277       .  A
C300        C568   1.438       .  S
C301        C556   1.435       .  S
H302        O303   0.966       .  S
O303       Ni311   1.902       .  S
O303       Ni305   1.905       .  S
O303       Ni310   1.907       .  S
O304       Ni305   1.941       .  S
Ni305       O309   1.917       .  S
Ni305       O307   1.933       .  S
O306       Ni311   1.951       .  S
C308        O309   1.272       .  A
C308        C625   1.435       .  S
O313       Ni319   1.918       .  S
O313        C334   1.267       .  A
O314       Ni337   1.896       .  S
O314        C323   1.262       .  A
O315       Ni319   1.917       .  S
O315       Ni337   1.911       .  S
O315       Ni331   1.920       .  S
O315        H338   0.966       .  S
C316        O333   1.277       .  A
C316        O325   1.279       .  A
C316        C512   1.443   1_655  S
O317       Ni336   1.952       .  S
O317        C323   1.275       .  A
O318       Ni336   1.905       .  S
O318        C320   1.268       .  A
Ni319       O322   1.928       .  S
Ni319       O324   1.900       .  S
C320        O330   1.275       .  A
C320        C517   1.441       .  S
O321       Ni337   1.910       .  S
O321        C327   1.269       .  A
O322        C327   1.271       .  A
C323        C525   1.443       .  S
O324        C326   1.265       .  A
O325       Ni336   1.932       .  S
C326        O332   1.273       .  A
C326        C524   1.435       .  S
C327        C516   1.436       .  S
H328        O329   0.966       .  S
O329       Ni337   1.906       .  S
O329       Ni331   1.906       .  S
O329       Ni336   1.907       .  S
O330       Ni331   1.940       .  S
Ni331       O335   1.916       .  S
Ni331       O333   1.927       .  S
O332       Ni337   1.942       .  S
C334        O335   1.271       .  A
C334        C604   1.433       .  S
O339       Ni345   1.920       .  S
O339        C360   1.266       .  A
O340       Ni363   1.900       .  S
O340        C349   1.264       .  A
O341       Ni345   1.917       .  S
O341       Ni363   1.910       .  S
O341       Ni357   1.920       .  S
O341        H364   0.966       .  S
C342        O359   1.278       .  A
C342        O351   1.279       .  A
C342        C500   1.447       .  S
O343       Ni362   1.951       .  S
O343        C349   1.275       .  A
O344       Ni362   1.904       .  S
O344        C346   1.267       .  A
Ni345       O348   1.927       .  S
Ni345       O350   1.902       .  S
C346        O356   1.277       .  A
C346        C505   1.444       .  S
O347       Ni363   1.917       .  S
O347        C353   1.272       .  A
O348        C353   1.273       .  A
C349        C528   1.444       .  S
O350        C352   1.265       .  A
O351       Ni362   1.936       .  S
C352        O358   1.271       .  A
C352        C504   1.437       .  S
C353        C496   1.439       .  S
H354        O355   0.966       .  S
O355       Ni363   1.911       .  S
O355       Ni357   1.910       .  S
O355       Ni362   1.907       .  S
O356       Ni357   1.945       .  S
Ni357       O361   1.923       .  S
Ni357       O359   1.929       .  S
O358       Ni363   1.937       .  S
C360        O361   1.272       .  A
C360        C537   1.438       .  S
O365       Ni371   1.921       .  S
O365        C386   1.266       .  A
O366       Ni389   1.900       .  S
O366        C375   1.264       .  A
O367       Ni371   1.912       .  S
O367       Ni389   1.907       .  S
O367       Ni383   1.915       .  S
O367        H390   0.966       .  S
C368        O385   1.277       .  A
C368        O377   1.279       .  A
C368        C484   1.439       .  S
O369       Ni388   1.952       .  S
O369        C375   1.276       .  A
O370       Ni388   1.904       .  S
O370        C372   1.267       .  A
Ni371       O374   1.924       .  S
Ni371       O376   1.901       .  S
C372        O382   1.276       .  A
C372        C509   1.441   1_545  S
O373       Ni389   1.913       .  S
O373        C379   1.272       .  A
O374        C379   1.274       .  A
C375        C489   1.445       .  S
O376        C378   1.265       .  A
O377       Ni388   1.931       .  S
C378        O384   1.271       .  A
C378        C513   1.437       .  S
C379        C488   1.434       .  S
H380        O381   0.966       .  S
O381       Ni389   1.907       .  S
O381       Ni383   1.908       .  S
O381       Ni388   1.903       .  S
O382       Ni383   1.942       .  S
Ni383       O387   1.921       .  S
Ni383       O385   1.924       .  S
O384       Ni389   1.937       .  S
C386        O387   1.271       .  A
C386        C616   1.437       .  S
O391       Ni397   1.919       .  S
O391        C412   1.268       .  A
O392       Ni415   1.899       .  S
O392        C401   1.263       .  A
O393       Ni397   1.918       .  S
O393       Ni415   1.913       .  S
O393       Ni409   1.924   1_545  S
O393        H416   0.966       .  S
C394        O411   1.278       .  A
C394        O403   1.279       .  A
C394        C508   1.447       .  S
O395       Ni414   1.953       .  S
O395        C401   1.275   1_565  A
O396       Ni414   1.906       .  S
O396        C398   1.268       .  A
Ni397       O400   1.928       .  S
Ni397       O402   1.901       .  S
C398        O408   1.277       .  A
C398        C476   1.445       .  S
O399       Ni415   1.911       .  S
O399        C405   1.268       .  A
O400        C405   1.270       .  A
C401        C492   1.446       .  S
O402        C404   1.267       .  A
O403       Ni414   1.934       .  S
C404        O410   1.275       .  A
C404        C477   1.437       .  S
C405        C501   1.436       .  S
H406        O407   0.966   1_545  S
O407       Ni415   1.907   1_565  S
O407       Ni409   1.910       .  S
O407       Ni414   1.910       .  S
O408       Ni409   1.945       .  S
Ni409       O413   1.923       .  S
Ni409       O411   1.930       .  S
O410       Ni415   1.947       .  S
C412        O413   1.273   1_545  A
C412        C529   1.440       .  S
O417       Ni423   1.910       .  S
O417        C438   1.267   1_655  A
O418       Ni441   1.898       .  S
O418        C427   1.263   1_655  A
O419       Ni423   1.920       .  S
O419       Ni441   1.912       .  S
O419       Ni435   1.936   1_655  S
O419        H442   0.966       .  S
C420        O437   1.279       .  A
C420        O429   1.279       .  A
C420        C473   1.447       .  S
O421       Ni440   1.953       .  S
O421        C427   1.275       .  A
O422       Ni440   1.903       .  S
O422        C424   1.267       .  A
Ni423       O426   1.930       .  S
Ni423       O428   1.901       .  S
C424        O434   1.277       .  A
C424        C497   1.444       .  S
O425       Ni441   1.911       .  S
O425        C431   1.265       .  A
O426        C431   1.268       .  A
C427        C469   1.446   1_455  S
O428        C430   1.269       .  A
O429       Ni440   1.935       .  S
C430        O436   1.279       .  A
C430        C493   1.439       .  S
C431        C480   1.437       .  S
H432        O433   0.966       .  S
O433       Ni441   1.901   1_455  S
O433       Ni435   1.907       .  S
O433       Ni440   1.908       .  S
O434       Ni435   1.946       .  S
Ni435       O439   1.924       .  S
Ni435       O437   1.931       .  S
O436       Ni441   1.957       .  S
C438        O439   1.274       .  A
C438        C580   1.438       .  S
O443       Ni449   1.918       .  S
O443        C464   1.265       .  A
O444       Ni467   1.899       .  S
O444        C453   1.264       .  A
O445       Ni449   1.911       .  S
O445       Ni467   1.907       .  S
O445       Ni461   1.918       .  S
O445        H468   0.966       .  S
C446        O463   1.280       .  A
C446        O455   1.280       .  A
C446        C520   1.443       .  S
O447       Ni466   1.953       .  S
O447        C453   1.276       .  A
O448       Ni466   1.905       .  S
O448        C450   1.267       .  A
Ni449       O452   1.924       .  S
Ni449       O454   1.899       .  S
C450        O460   1.273       .  A
C450        C481   1.437   1_655  S
O451       Ni467   1.913       .  S
O451        C457   1.271       .  A
O452        C457   1.274       .  A
C453        C472   1.445       .  S
O454        C456   1.265       .  A
O455       Ni466   1.931       .  S
C456        O462   1.271       .  A
C456        C485   1.435       .  S
C457        C521   1.434       .  S
H458        O459   0.966       .  S
O459       Ni467   1.906       .  S
O459       Ni461   1.909       .  S
O459       Ni466   1.904       .  S
O460       Ni461   1.933       .  S
Ni461       O465   1.927       .  S
Ni461       O463   1.931       .  S
O462       Ni467   1.936       .  S
C464        O465   1.272       .  A
C464        C664   1.440       .  S
C469        C470   1.212       .  T
C470        C471   1.422       .  S
C471        C472   1.212       .  T
C473        C474   1.213       .  T
C474        C475   1.423       .  S
C475        C476   1.212       .  T
C477        C478   1.207       .  T
C478        C479   1.414       .  S
C479        C480   1.207       .  T
C481        C482   1.207       .  T
C482        C483   1.415       .  S
C483        C484   1.208       .  T
C485        C486   1.206       .  T
C486        C487   1.412       .  S
C487        C488   1.205       .  T
C489        C490   1.212       .  T
C490        C491   1.422       .  S
C491        C492   1.212       .  T
C493        C494   1.208       .  T
C494        C495   1.416       .  S
C495        C496   1.208       .  T
C497        C498   1.212       .  T
C498        C499   1.422       .  S
C499        C500   1.212       .  T
C501        C502   1.206       .  T
C502        C503   1.413       .  S
C503        C504   1.207       .  T
C505        C506   1.212       .  T
C506        C507   1.423       .  S
C507        C508   1.212       .  T
C509        C510   1.210       .  T
C510        C511   1.419       .  S
C511        C512   1.210       .  T
C513        C514   1.207       .  T
C514        C515   1.413       .  S
C515        C516   1.206       .  T
C517        C518   1.210       .  T
C518        C519   1.419       .  S
C519        C520   1.210   1_565  T
C521        C522   1.205       .  T
C522        C523   1.411       .  S
C523        C524   1.205       .  T
C525        C526   1.211       .  T
C526        C527   1.420       .  S
C527        C528   1.211       .  T
C529        C530   1.210       .  T
C530        C531   1.419   1_556  S
C531        C532   1.210       .  T
C533        C534   1.211   1_545  T
C534        C535   1.420       .  S
C535        C536   1.211       .  T
C537        C538   1.208       .  T
C538        C539   1.417   1_556  S
C539        C540   1.208       .  T
C541        C542   1.207       .  T
C542        C543   1.415       .  S
C543        C544   1.208       .  T
C545        C546   1.211       .  T
C546        C547   1.421       .  S
C547        C548   1.212       .  T
C549        C550   1.212   1_455  T
C550        C551   1.422       .  S
C551        C552   1.212       .  T
C553        C554   1.206       .  T
C554        C555   1.412       .  S
C555        C556   1.206       .  T
C557        C558   1.208       .  T
C558        C559   1.416       .  S
C559        C560   1.208       .  T
C561        C562   1.211       .  T
C562        C563   1.420       .  S
C563        C564   1.210       .  T
C565        C566   1.208       .  T
C566        C567   1.415       .  S
C567        C568   1.208       .  T
C569        C570   1.210       .  T
C570        C571   1.420       .  S
C571        C572   1.211       .  T
C573        C574   1.208       .  T
C574        C575   1.415       .  S
C575        C576   1.207       .  T
C577        C578   1.209       .  T
C578        C579   1.417   1_554  S
C579        C580   1.208       .  T
C581        C582   1.206       .  T
C582        C583   1.412       .  S
C583        C584   1.206       .  T
C585        C586   1.211       .  T
C586        C587   1.420       .  S
C587        C588   1.211       .  T
C589        C590   1.206       .  T
C590        C591   1.413       .  S
C591        C592   1.206       .  T
C593        C594   1.211       .  T
C594        C595   1.420       .  S
C595        C596   1.210       .  T
C597        C598   1.211       .  T
C598        C599   1.421       .  S
C599        C600   1.211       .  T
C601        C602   1.206       .  T
C602        C603   1.413       .  S
C603        C604   1.206       .  T
C605        C606   1.210       .  T
C606        C607   1.419       .  S
C607        C608   1.209       .  T
C609        C610   1.212       .  T
C610        C611   1.422       .  S
C611        C612   1.212       .  T
C613        C614   1.207       .  T
C614        C615   1.415       .  S
C615        C616   1.208       .  T
C617        C618   1.207       .  T
C618        C619   1.414       .  S
C619        C620   1.207   1_455  T
C621        C622   1.213       .  T
C622        C623   1.424       .  S
C623        C624   1.213       .  T
C625        C626   1.207       .  T
C626        C627   1.414       .  S
C627        C628   1.207       .  T
C629        C630   1.204   1_455  T
C630        C631   1.409       .  S
C631        C632   1.204       .  T
C633        C634   1.211       .  T
C634        C635   1.421       .  S
C635        C636   1.211       .  T
C637        C638   1.208       .  T
C638        C639   1.415   1_545  S
C639        C640   1.207       .  T
C641        C642   1.208       .  T
C642        C643   1.417       .  S
C643        C644   1.208       .  T
C645        C646   1.207       .  T
C646        C647   1.414       .  S
C647        C648   1.207       .  T
C649        C650   1.210       .  T
C650        C651   1.419       .  S
C651        C652   1.210       .  T
C653        C654   1.211       .  T
C654        C655   1.421       .  S
C655        C656   1.211       .  T
C657        C658   1.206       .  T
C658        C659   1.412       .  S
C659        C660   1.206       .  T
C661        C662   1.209       .  T
C662        C663   1.419       .  S
C663        C664   1.209       .  T
C665        C666   1.211       .  T
C666        C667   1.422       .  S
C667        C668   1.212       .  T
C669        C670   1.208   1_545  T
C670        C671   1.416       .  S
C671        C672   1.208       .  T
C673        C674   1.213       .  T
C674        C675   1.425       .  S
C675        C676   1.214       .  T
C677        C678   1.207       .  T
C678        C679   1.414       .  S
C679        C680   1.207       .  T
C681        C682   1.212       .  T
C682        C683   1.423   1_655  S
C683        C684   1.212       .  T
