geometry optimzed in LAMMPS
_audit_creation_date              2020-12-01 
_audit_creation_method            'lammps2cif' 
_symmetry_space_group_name_H-M    'P1' 
_symmetry_Int_Tables_number       1 
_symmetry_cell_setting            triclinic 
loop_ 
_symmetry_equiv_pos_as_xyz 
  x,y,z 
_cell_length_a                    75.90719734 
_cell_length_b                    75.96447293958421 
_cell_length_c                    30.40155643335595 
_cell_angle_alpha                 90.08372635824504 
_cell_angle_beta                  90.00083131165997 
_cell_angle_gamma                 90.03680112623537 
loop_ 
_atom_site_label 
_atom_site_type_symbol 
_atom_site_fract_x 
_atom_site_fract_y 
_atom_site_fract_z 
_atom_site_charge 
Fe1        Fe  0.84439377  0.25186703  0.47717607     1.65800
Fe2        Fe  0.88254920  0.23267637  0.50998416     1.73200
Fe3        Fe  0.85267876  0.20897616  0.45180549     1.54400
O4          O  0.82631044  0.21133509  0.46778390    -0.80200
O5          O  0.89604077  0.22381597  0.45563890    -0.78500
O6          O  0.82288103  0.23774489  0.49815558    -0.82700
O7          O  0.83846779  0.24791864  0.41126520    -0.77600
O8          O  0.85616866  0.19479695  0.50901004    -0.79400
O9          O  0.88789875  0.25813876  0.49034099    -0.82100
C10         C  0.84269810  0.23644197  0.38263234     0.98700
C11         C  0.81718498  0.22255243  0.48856784     1.06100
O12         O  0.85982815  0.23121759  0.47973746    -1.11100
O13         O  0.87090924  0.24176704  0.56678667    -0.73500
O14         O  0.84885374  0.25835548  0.54218085    -0.77000
O15         O  0.84895312  0.22150282  0.39283685    -0.77700
C16         C  0.85868837  0.25290991  0.57311479     0.97600
O17         O  0.86416133  0.26855236  0.45687883    -0.75700
O18         O  0.88077177  0.20733005  0.53421142    -0.80800
C19         C  0.89300440  0.21033724  0.43216326     1.00200
C20         C  0.86953052  0.19494795  0.53403626     1.06100
O21         O  0.87798282  0.20297313  0.43127615    -0.76500
C22         C  0.88011384  0.27004304  0.46859033     1.04400
Fe23       Fe  0.66116210  0.25518217  0.56037418     1.65800
Fe24       Fe  0.62385679  0.23622132  0.52013720     1.73200
Fe25       Fe  0.65265642  0.21165508  0.58069262     1.54400
O26         O  0.67921857  0.21416330  0.56695563    -0.80200
O27         O  0.60894271  0.22492475  0.56896553    -0.78500
O28         O  0.68365586  0.24162335  0.54497731    -0.82700
O29         O  0.66449294  0.25075028  0.62638897    -0.77600
O30         O  0.64990626  0.19799053  0.52225672    -0.79400
O31         O  0.61684017  0.26044528  0.54523413    -0.82100
C32         C  0.66108162  0.23851846  0.65347574     0.98700
C33         C  0.68909473  0.22611880  0.55161180     1.06100
O34         O  0.64589965  0.23436666  0.55378381    -1.11100
O35         O  0.63645780  0.24747046  0.46764110    -0.73500
O36         O  0.65959966  0.26179218  0.49481485    -0.77000
O37         O  0.65578935  0.22336252  0.64153574    -0.77700
C38         C  0.64986538  0.25722789  0.46286933     0.97600
O39         O  0.64067659  0.27170384  0.57686270    -0.75700
O40         O  0.62776279  0.21231980  0.48999850    -0.80800
C41         C  0.61189233  0.21163779  0.59296377     1.00200
C42         C  0.63850079  0.19955180  0.49196606     1.06100
O43         O  0.62716237  0.20518914  0.59810978    -0.76500
C44         C  0.62445438  0.27238940  0.56725755     1.04400
Fe45       Fe  0.84526447  0.28182576  0.97625508     1.65800
Fe46       Fe  0.88205865  0.30055569  0.01839844     1.73200
Fe47       Fe  0.85494601  0.32510567  0.95312996     1.54400
O48         O  0.84928367  0.31265860  0.89423483    -0.80200
O49         O  0.87507566  0.32223008  0.05478887    -0.78500
O50         O  0.84529689  0.28409044  0.90894834    -0.82700
O51         O  0.82255118  0.29617795  0.98213705    -0.77600
O52         O  0.88025090  0.32914138  0.92942819    -0.79400
O53         O  0.87021674  0.28526613  0.06569596    -0.82100
C54         C  0.81824342  0.31225737  0.98259573     0.98700
C55         C  0.84670223  0.29682963  0.88217214     1.06100
O56         O  0.86074091  0.30255621  0.98236919    -1.11100
O57         O  0.89086705  0.27872306  0.98469816    -0.73500
O58         O  0.86596615  0.26416040  0.97089754    -0.77000
O59         O  0.82888360  0.32453629  0.97309243    -0.77700
C60         C  0.88266376  0.26503762  0.97239504     0.97600
O61         O  0.84352869  0.27777343  0.04296597    -0.75700
O62         O  0.89738455  0.31567015  0.97778578    -0.80800
C63         C  0.86760123  0.33675731  0.04593294     1.00200
C64         C  0.89537047  0.32559935  0.94485743     1.06100
O65         O  0.86033136  0.33988138  0.00904233    -0.76500
C66         C  0.85512936  0.27874468  0.07276839     1.04400
Fe67       Fe  0.66245638  0.28291502  0.06014791     1.65800
Fe68       Fe  0.62573656  0.30320343  0.02035311     1.73200
Fe69       Fe  0.65464086  0.32649994  0.08483250     1.54400
O70         O  0.66030412  0.31377844  0.14307990    -0.80200
O71         O  0.63120626  0.32645638  0.98853713    -0.78500
O72         O  0.66508379  0.28557516  0.12690948    -0.82700
O73         O  0.68534469  0.29655224  0.04896349    -0.77600
O74         O  0.62966786  0.33132733  0.10902687    -0.79400
O75         O  0.63743820  0.29034484  0.96882115    -0.82100
C76         C  0.69051756  0.31236429  0.05196077     0.98700
C77         C  0.66392122  0.29810025  0.15429861     1.06100
O78         O  0.64762555  0.30424213  0.05514388    -1.11100
O79         O  0.61738755  0.27979189  0.04778674    -0.73500
O80         O  0.64142795  0.26631119  0.07184424    -0.77000
O81         O  0.68058906  0.32480419  0.06460940    -0.77700
C82         C  0.62491195  0.26671729  0.06558538     0.97600
O83         O  0.66176926  0.27758471  0.99388829    -0.75700
O84         O  0.61114409  0.31608433  0.06695813    -0.80800
C85         C  0.64007693  0.34028727  0.99622106     1.00200
C86         C  0.61420076  0.32670833  0.09814266     1.06100
O87         O  0.64955181  0.34215578  0.03035768    -0.76500
C88         C  0.65116796  0.28118542  0.96304533     1.04400
Fe89       Fe  0.51822840  0.42863910  0.71698616     1.65800
Fe90       Fe  0.53715772  0.39208647  0.75971860     1.73200
Fe91       Fe  0.56140216  0.41911814  0.69357716     1.54400
O92         O  0.54845112  0.42511632  0.63489126    -0.80200
O93         O  0.55941771  0.39854010  0.79477144    -0.78500
O94         O  0.51965050  0.42734973  0.64966563    -0.82700
O95         O  0.53261044  0.45161556  0.71786533    -0.77600
O96         O  0.56473554  0.39391389  0.66891671    -0.79400
O97         O  0.52270479  0.40461221  0.80789295    -0.82100
C98         C  0.54867263  0.45607432  0.71984913     0.98700
C99         C  0.53243693  0.42668161  0.62277969     1.06100
O100        O  0.53901772  0.41329274  0.72333555    -1.11100
O101        O  0.51485125  0.38333273  0.72760041    -0.73500
O102        O  0.50009830  0.40809445  0.71507126    -0.77000
O103        O  0.56110685  0.44510218  0.71487350    -0.77700
C104        C  0.50104823  0.39141764  0.71584008     0.97600
O105        O  0.51543317  0.43127015  0.78397559    -0.75700
O106        O  0.55144324  0.37664806  0.71736218    -0.80800
C107        C  0.57402188  0.40578819  0.78539537     1.00200
C108        C  0.56087646  0.37874059  0.68345064     1.06100
O109        O  0.57684228  0.41326804  0.74856786    -0.76500
C110        C  0.51670000  0.41997912  0.81448193     1.04400
Fe111      Fe  0.51817792  0.60963331  0.81970630     1.65800
Fe112      Fe  0.53799101  0.64544711  0.77476877     1.73200
Fe113      Fe  0.56140263  0.61862007  0.84392915     1.54400
O114        O  0.54847048  0.61340426  0.90277969    -0.80200
O115        O  0.56047221  0.63837898  0.74156121    -0.78500
O116        O  0.52004269  0.61047391  0.88659560    -0.82700
O117        O  0.53208210  0.58647872  0.81681218    -0.77600
O118        O  0.56547363  0.64413915  0.86616013    -0.79400
O119        O  0.52360119  0.63277763  0.72680722    -0.82100
C120        C  0.54805762  0.58168911  0.81718805     0.98700
C121        C  0.53246846  0.61148631  0.91426554     1.06100
O122        O  0.53925284  0.62457947  0.81286101    -1.11100
O123        O  0.51533456  0.65487694  0.80406985    -0.73500
O124        O  0.50096794  0.63064638  0.82362323    -0.77000
O125        O  0.56059103  0.59235765  0.82466533    -0.77700
C126        C  0.50169068  0.64721453  0.81871466     0.97600
O127        O  0.51413955  0.60724155  0.75316333    -0.75700
O128        O  0.55247074  0.66116370  0.81655313    -0.80800
C129        C  0.57487096  0.63115924  0.75273310     1.00200
C130        C  0.56228265  0.65921348  0.84992173     1.06100
O131        O  0.57705605  0.62360985  0.78959537    -0.76500
C132        C  0.51600908  0.61803962  0.72182364     1.04400
Fe133      Fe  0.48857448  0.42616845  0.21682522     1.65800
Fe134      Fe  0.46973896  0.38794650  0.24760491     1.73200
Fe135      Fe  0.44617330  0.41764767  0.18954794     1.54400
O136        O  0.44899227  0.44425293  0.20532708    -0.80200
O137        O  0.46180282  0.37455282  0.19182087    -0.78500
O138        O  0.47424947  0.44675595  0.24207191    -0.82700
O139        O  0.48385014  0.43411617  0.15280079    -0.77600
O140        O  0.43187588  0.41418309  0.24668831    -0.79400
O141        O  0.49552360  0.38341768  0.22900651    -0.82100
C142        C  0.47333648  0.42930805  0.12254215     0.98700
C143        C  0.45966193  0.45298420  0.22914795     1.06100
O144        O  0.46815235  0.41061491  0.21809085    -1.11100
O145        O  0.47774086  0.39976544  0.30569639    -0.73500
O146        O  0.49615151  0.42026134  0.28056317    -0.77000
O147        O  0.45905259  0.42124806  0.13076053    -0.77700
C148        C  0.48968584  0.41125490  0.31183072     0.97600
O149        O  0.50456477  0.40677972  0.19152793    -0.75700
O150        O  0.44405648  0.38909977  0.26962051    -0.80800
C151        C  0.44791518  0.37725073  0.16957482     1.00200
C152        C  0.43165766  0.40032145  0.26995098     1.06100
O153        O  0.44005153  0.39205882  0.16952366    -0.76500
C154        C  0.50652508  0.39097518  0.20387698     1.04400
Fe155      Fe  0.49043257  0.60853268  0.32292313     1.65800
Fe156      Fe  0.47185756  0.64660261  0.28937407     1.73200
Fe157      Fe  0.44679388  0.61643752  0.34189587     1.54400
O158        O  0.44977488  0.59001199  0.32437586    -0.80200
O159        O  0.46270883  0.65944867  0.34396886    -0.78500
O160        O  0.47708736  0.58701059  0.29923803    -0.82700
O161        O  0.48476918  0.60200904  0.38733772    -0.77600
O162        O  0.43391042  0.62049036  0.28274740    -0.79400
O163        O  0.49719199  0.65164271  0.31077761    -0.82100
C164        C  0.47257459  0.60561260  0.41457584     0.98700
C165        C  0.46174088  0.58098049  0.30567213     1.06100
O166        O  0.46971343  0.62374058  0.31801712    -1.11100
O167        O  0.48122751  0.63507840  0.23311498    -0.73500
O168        O  0.49837055  0.61357213  0.25886833    -0.77000
O169        O  0.45786473  0.61206802  0.40281084    -0.77700
C170        C  0.49279894  0.62320703  0.22760422     0.97600
O171        O  0.50640905  0.62827118  0.34738735    -0.75700
O172        O  0.44669348  0.64569480  0.26350337    -0.80800
C173        C  0.44822878  0.65680572  0.36361292     1.00200
C174        C  0.43421014  0.63463092  0.26061094     1.06100
O175        O  0.44030266  0.64199652  0.36237551    -0.76500
C176        C  0.50832801  0.64412078  0.33543086     1.04400
Fe177      Fe  0.34836181  0.75595713  0.97655016     1.65800
Fe178      Fe  0.38645765  0.73640409  0.00929808     1.73200
Fe179      Fe  0.35620067  0.71288953  0.95079645     1.54400
O180        O  0.32998774  0.71534108  0.96852444    -0.80200
O181        O  0.39990765  0.72669390  0.95564578    -0.78500
O182        O  0.32647609  0.74213234  0.99664587    -0.82700
O183        O  0.34229786  0.75211278  0.91123814    -0.77600
O184        O  0.36022256  0.69830569  0.00727251    -0.79400
O185        O  0.39244168  0.76159004  0.98764507    -0.82100
C186        C  0.34559698  0.74051178  0.88232818     0.98700
C187        C  0.32067649  0.72689069  0.98768370     1.06100
O188        O  0.36363323  0.73508625  0.97900345    -1.11100
O189        O  0.37504683  0.74627074  0.06577284    -0.73500
O190        O  0.35264684  0.76244258  0.04151565    -0.77000
O191        O  0.35173101  0.72546341  0.89199972    -0.77700
C192        C  0.36261113  0.75716152  0.07229722     0.97600
O193        O  0.36841715  0.77239330  0.95600895    -0.75700
O194        O  0.38412825  0.71131065  0.03514086    -0.80800
C195        C  0.39653161  0.71384705  0.93026845     1.00200
C196        C  0.37319064  0.69866315  0.03356906     1.06100
O197        O  0.38129850  0.70695112  0.92827874    -0.76500
C198        C  0.38461993  0.77347807  0.96582890     1.04400
Fe199      Fe  0.16282440  0.75216433  0.06890094     1.65800
Fe200      Fe  0.12600544  0.73208565  0.02962554     1.73200
Fe201      Fe  0.15666403  0.70793625  0.08613319     1.54400
O202        O  0.18259419  0.71140498  0.06586823    -0.80200
O203        O  0.11241343  0.71987936  0.07929580    -0.78500
O204        O  0.18549710  0.73975232  0.04995450    -0.82700
O205        O  0.16775792  0.74718674  0.13451657    -0.77600
O206        O  0.15240818  0.69416530  0.02892976    -0.79400
O207        O  0.11840657  0.75599800  0.05620144    -0.82100
C208        C  0.16625464  0.73406301  0.16007942     0.98700
C209        C  0.19160470  0.72427156  0.05152917     1.06100
O210        O  0.14849734  0.73070820  0.06166326    -1.11100
O211        O  0.13745800  0.74422991  0.97660521    -0.73500
O212        O  0.15978729  0.75967466  0.00395051    -0.77000
O213        O  0.16173721  0.71889722  0.14670858    -0.77700
C214        C  0.15008456  0.75499720  0.97196434     0.97600
O215        O  0.14188115  0.76750396  0.08851293    -0.75700
O216        O  0.13002241  0.70846830  0.99796332    -0.80800
C217        C  0.11615935  0.70707366  0.10430088     1.00200
C218        C  0.14061371  0.69558766  0.99976092     1.06100
O219        O  0.13172563  0.70111217  0.10863553    -0.76500
C220        C  0.12565360  0.76800501  0.07885285     1.04400
Fe221      Fe  0.35145367  0.78329249  0.47774924     1.65800
Fe222      Fe  0.38801420  0.80235207  0.51801743     1.73200
Fe223      Fe  0.35976479  0.82624045  0.45483843     1.54400
O224        O  0.35176927  0.81329543  0.39745774    -0.80200
O225        O  0.38095828  0.82371406  0.55558441    -0.78500
O226        O  0.35319041  0.78444925  0.41103416    -0.82700
O227        O  0.32816425  0.79721658  0.47640046    -0.77600
O228        O  0.38431355  0.82958582  0.42636442    -0.79400
O229        O  0.37653606  0.78629807  0.56537245    -0.82100
C230        C  0.32362875  0.81310966  0.48174868     0.98700
C231        C  0.35147496  0.79727776  0.38472024     1.06100
O232        O  0.36644463  0.80408629  0.48342269    -1.11100
O233        O  0.39695845  0.78091294  0.48255608    -0.73500
O234        O  0.37217375  0.76550643  0.47773596    -0.77000
O235        O  0.33456205  0.82570193  0.48083797    -0.77700
C236        C  0.38880278  0.76668232  0.47474950     0.97600
O237        O  0.34888867  0.78125704  0.54443427    -0.75700
O238        O  0.40234630  0.81828078  0.47633486    -0.80800
C239        C  0.37436268  0.83854601  0.54556636     1.00200
C240        C  0.39968594  0.82722665  0.44175610     1.06100
O241        O  0.36719745  0.84153879  0.50847338    -0.76500
C242        C  0.36093932  0.78102184  0.57325738     1.04400
Fe243      Fe  0.16704025  0.77698036  0.56764241     1.65800
Fe244      Fe  0.13094278  0.79733696  0.52568382     1.73200
Fe245      Fe  0.16009426  0.82073615  0.58838727     1.54400
O246        O  0.16723841  0.80858454  0.64655902    -0.80200
O247        O  0.13760983  0.81915022  0.48973987    -0.78500
O248        O  0.16729408  0.77962600  0.63475907    -0.82700
O249        O  0.19058567  0.79032972  0.56115003    -0.77600
O250        O  0.13568463  0.82496229  0.61628066    -0.79400
O251        O  0.14230993  0.78225650  0.47680762    -0.82100
C252        C  0.19567648  0.80615837  0.55710162     0.98700
C253        C  0.16795734  0.79282129  0.66027458     1.06100
O254        O  0.15268761  0.79839070  0.56054675    -1.11100
O255        O  0.12157150  0.77544093  0.55767771    -0.73500
O256        O  0.14555104  0.76036644  0.57505872    -0.77000
O257        O  0.18534350  0.81905198  0.56325584    -0.77700
C258        C  0.12891062  0.76170808  0.57242926     0.97600
O259        O  0.16804724  0.77228794  0.50102736    -0.75700
O260        O  0.11681327  0.81235885  0.56990878    -0.80800
C261        C  0.14513423  0.83358495  0.49894542     1.00200
C262        C  0.12009466  0.82170902  0.60356850     1.06100
O263        O  0.15340009  0.83612262  0.53469798    -0.76500
C264        C  0.15679357  0.77427057  0.47062971     1.04400
Fe265      Fe  0.01875109  0.42700328  0.82460203     1.65800
Fe266      Fe  0.03863693  0.39041307  0.78468262     1.73200
Fe267      Fe  0.06217665  0.41915767  0.84883545     1.54400
O268        O  0.06094611  0.44499682  0.82638130    -0.80200
O269        O  0.05367634  0.37601354  0.82783971    -0.78500
O270        O  0.03231761  0.45017217  0.81888898    -0.82700
O271        O  0.02072712  0.42757856  0.89166943    -0.77600
O272        O  0.07746661  0.41328431  0.79423219    -0.79400
O273        O  0.01651339  0.38134506  0.81736175    -0.82100
C274        C  0.03339226  0.42738083  0.91884301     0.98700
C275        C  0.04817321  0.45530067  0.81846458     1.06100
O276        O  0.03993442  0.41220357  0.81945504    -1.11100
O277        O  0.02347631  0.40146172  0.73576413    -0.73500
O278        O  0.01471043  0.42790686  0.75773145    -0.77000
O279        O  0.04937815  0.42547370  0.90715540    -0.77700
C280        C  0.01607101  0.41611741  0.72842247     0.97600
O281        O  0.00183726  0.40594784  0.83134910    -0.75700
O282        O  0.06057670  0.39736301  0.74895470    -0.80800
C283        C  0.06327571  0.37879207  0.86120435     1.00200
C284        C  0.07486582  0.40530034  0.75801651     1.06100
O285        O  0.06663263  0.39425498  0.87483235    -0.76500
C286        C  0.00277006  0.38929846  0.83049328     1.04400
Fe287      Fe  0.01704057  0.60927615  0.72149327     1.65800
Fe288      Fe  0.03592204  0.64570400  0.76672435     1.73200
Fe289      Fe  0.06042981  0.61814053  0.70220526     1.54400
O290        O  0.05979271  0.59257061  0.72531558    -0.80200
O291        O  0.05122866  0.66086580  0.72503580    -0.78500
O292        O  0.03116201  0.58621008  0.72657831    -0.82700
O293        O  0.01996642  0.60940454  0.65457284    -0.77600
O294        O  0.07512631  0.62467465  0.75690917    -0.79400
O295        O  0.01406758  0.65476111  0.73379018    -0.82100
C296        C  0.03324114  0.60899669  0.62933002     0.98700
C297        C  0.04720862  0.58172602  0.72968345     1.06100
O298        O  0.03780932  0.62437000  0.73016953    -1.11100
O299        O  0.02021072  0.63375233  0.81335994    -0.73500
O300        O  0.01182926  0.60764527  0.78767505    -0.77000
O301        O  0.04889384  0.61087099  0.64325152    -0.77700
C302        C  0.01249734  0.61905032  0.81809027     0.97600
O303        O  0.99996390  0.63020351  0.71485276    -0.75700
O304        O  0.05751745  0.63878231  0.80374243    -0.80800
C305        C  0.06036392  0.65834316  0.69062120     1.00200
C306        C  0.07218193  0.63178916  0.79394692     1.06100
O307        O  0.06362824  0.64300510  0.67618443    -0.76500
C308        C  0.00070997  0.64682594  0.71845310     1.04400
Fe309      Fe  0.98847763  0.42589375  0.32393040     1.65800
Fe310      Fe  0.96946280  0.38858451  0.28637664     1.73200
Fe311      Fe  0.94542870  0.41711691  0.34832532     1.54400
O312        O  0.95828905  0.42544864  0.40520690    -0.80200
O313        O  0.94785475  0.39486548  0.24906236    -0.78500
O314        O  0.98718526  0.42568980  0.39109963    -0.82700
O315        O  0.97422560  0.44894955  0.32161409    -0.77600
O316        O  0.94233939  0.39281969  0.37799689    -0.79400
O317        O  0.98504045  0.39953768  0.23764403    -0.82100
C318        C  0.95816129  0.45308759  0.31738462     0.98700
C319        C  0.97429290  0.42666257  0.41756155     1.06100
O320        O  0.96769688  0.41055113  0.31959767    -1.11100
O321        O  0.99109345  0.38037963  0.32171320    -0.73500
O322        O  0.00632247  0.40531541  0.32717925    -0.77000
O323        O  0.94571306  0.44210031  0.32151789    -0.77700
C324        C  0.00513310  0.38871300  0.33035026     0.97600
O325        O  0.99117977  0.42716024  0.25681015    -0.75700
O326        O  0.95404418  0.37445651  0.32936971    -0.80800
C327        C  0.93302400  0.40158810  0.25860748     1.00200
C328        C  0.94513122  0.37734651  0.36386189     1.06100
O329        O  0.93004110  0.40922692  0.29514985    -0.76500
C330        C  0.99090166  0.41479200  0.22875489     1.04400
Fe331      Fe  0.99156462  0.60631620  0.21988250     1.65800
Fe332      Fe  0.97361274  0.64389091  0.26145661     1.73200
Fe333      Fe  0.94785354  0.61554797  0.20227787     1.54400
O334        O  0.95890993  0.60820112  0.14301522    -0.80200
O335        O  0.95175270  0.63859254  0.29955747    -0.78500
O336        O  0.98792600  0.60580406  0.15286266    -0.82700
O337        O  0.97731960  0.58347439  0.22710242    -0.77600
O338        O  0.94369456  0.64035983  0.17581980    -0.79400
O339        O  0.98862270  0.63209005  0.30934673    -0.82100
C340        C  0.96127316  0.57920858  0.23097285     0.98700
C341        C  0.97439242  0.60589811  0.12826000     1.06100
O342        O  0.97096759  0.62191780  0.22785823    -1.11100
O343        O  0.99563330  0.65174689  0.22697016    -0.73500
O344        O  0.00933219  0.62660882  0.21140031    -0.77000
O345        O  0.94877878  0.59008064  0.22603588    -0.77700
C346        C  0.00885804  0.64326003  0.21304593     0.97600
O347        O  0.99697918  0.60550760  0.28645657    -0.75700
O348        O  0.95898020  0.65869064  0.21834258    -0.80800
C349        C  0.93718133  0.63081808  0.29278657     1.00200
C350        C  0.94835766  0.65579122  0.18704373     1.06100
O351        O  0.93394249  0.62221800  0.25796011    -0.76500
C352        C  0.99578970  0.61725467  0.31606562     1.04400
Fe353      Fe  0.51792439  0.10955444  0.21481482     1.65800
Fe354      Fe  0.53578247  0.14781268  0.25240358     1.73200
Fe355      Fe  0.56073569  0.11973227  0.18984736     1.54400
O356        O  0.55965666  0.09348694  0.20881813    -0.80200
O357        O  0.54728961  0.16283479  0.20428103    -0.78500
O358        O  0.53268427  0.08854409  0.23510066    -0.82700
O359        O  0.52237572  0.10393524  0.14963375    -0.77600
O360        O  0.57537430  0.12472922  0.24590635    -0.79400
O361        O  0.51168890  0.15376633  0.22466684    -0.82100
C362        C  0.53389787  0.10734184  0.12074277     0.98700
C363        C  0.54841801  0.08377379  0.22807166     1.06100
O364        O  0.53818019  0.12573435  0.21900491    -1.11100
O365        O  0.52410523  0.13594867  0.30541299    -0.73500
O366        O  0.51022150  0.11253314  0.27923916    -0.77000
O367        O  0.54861437  0.11426289  0.13048762    -0.77700
C368        C  0.51407005  0.12282160  0.31052972     0.97600
O369        O  0.50115135  0.12919609  0.19455214    -0.75700
O370        O  0.55950785  0.14426376  0.28392097    -0.80800
C371        C  0.55895607  0.16032527  0.17520853     1.00200
C372        C  0.57322114  0.13494105  0.27857927     1.06100
O373        O  0.56512208  0.14511545  0.16712636    -0.76500
C374        C  0.50011356  0.14557007  0.20246741     1.04400
Fe375      Fe  0.52321113  0.93069262  0.32332674     1.65800
Fe376      Fe  0.54128064  0.89343717  0.28003695     1.73200
Fe377      Fe  0.56705491  0.92138920  0.34107962     1.54400
O378        O  0.56550833  0.94765823  0.32308797    -0.80200
O379        O  0.55420646  0.87819015  0.32534343    -0.78500
O380        O  0.53725941  0.95286139  0.30816196    -0.82700
O381        O  0.52802299  0.93354441  0.38988634    -0.77600
O382        O  0.58083062  0.91677794  0.28362311    -0.79400
O383        O  0.51782864  0.88620547  0.30918298    -0.82100
C384        C  0.54101198  0.93103604  0.41546507     0.98700
C385        C  0.55320395  0.95765691  0.31003039     1.06100
O386        O  0.54386095  0.91516415  0.31489558    -1.11100
O387        O  0.52821470  0.90584632  0.23009587    -0.73500
O388        O  0.51578804  0.92987601  0.25792144    -0.77000
O389        O  0.55610049  0.92640693  0.40175951    -0.77700
C390        C  0.51875709  0.91946474  0.22613581     0.97600
O391        O  0.50625117  0.91033548  0.33855156    -0.75700
O392        O  0.56421424  0.89781993  0.24590606    -0.80800
C393        C  0.56623125  0.88073203  0.35353215     1.00200
C394        C  0.57812350  0.90686865  0.25068816     1.06100
O395        O  0.57210379  0.89598844  0.36239610    -0.76500
C396        C  0.50559368  0.89401107  0.32984638     1.04400
Fe397      Fe  0.49084469  0.10847763  0.71209134     1.65800
Fe398      Fe  0.47185647  0.14467547  0.75714514     1.73200
Fe399      Fe  0.44708187  0.11687250  0.69423890     1.54400
O400        O  0.45879820  0.11106521  0.63461501    -0.80200
O401        O  0.45037019  0.13796700  0.79472737    -0.78500
O402        O  0.48799488  0.10979320  0.64499789    -0.82700
O403        O  0.47714082  0.08526968  0.71341707    -0.77600
O404        O  0.44249817  0.14192315  0.67040526    -0.79400
O405        O  0.48750167  0.13234424  0.80349782    -0.82100
C406        C  0.46129298  0.08027823  0.71641702     0.98700
C407        C  0.47448492  0.10982973  0.62030156     1.06100
O408        O  0.46983699  0.12332514  0.72112474    -1.11100
O409        O  0.49327312  0.15377604  0.72252604    -0.73500
O410        O  0.50834549  0.12930068  0.70883139    -0.77000
O411        O  0.44846055  0.09091361  0.71451780    -0.77700
C412        C  0.50703510  0.14591918  0.70969840     0.97600
O413        O  0.49499647  0.10580534  0.77878358    -0.75700
O414        O  0.45639624  0.15991263  0.71641683    -0.80800
C415        C  0.43582602  0.13037958  0.78649829     1.00200
C416        C  0.44618222  0.15727676  0.68408294     1.06100
O417        O  0.43280012  0.12239688  0.75052441    -0.76500
C418        C  0.49397540  0.11710491  0.80946738     1.04400
Fe419      Fe  0.49702906  0.92795551  0.82261059     1.65800
Fe420      Fe  0.47823586  0.89127866  0.77975697     1.73200
Fe421      Fe  0.45351977  0.91903158  0.84234907     1.54400
O422        O  0.46520007  0.92719005  0.90029771    -0.80200
O423        O  0.45696037  0.89815895  0.74152219    -0.78500
O424        O  0.49429243  0.92804225  0.88989494    -0.82700
O425        O  0.48272931  0.95084748  0.81722615    -0.77600
O426        O  0.45003940  0.89435963  0.87036641    -0.79400
O427        O  0.49430006  0.90279858  0.73293668    -0.82100
C428        C  0.46672526  0.95508306  0.81176979     0.98700
C429        C  0.48082959  0.92892052  0.91459910     1.06100
O430        O  0.47624998  0.91271876  0.81515954    -1.11100
O431        O  0.49968844  0.88237196  0.81499016    -0.73500
O432        O  0.51458570  0.90712414  0.82823330    -0.77000
O433        O  0.45421633  0.94417773  0.81658195    -0.77700
C434        C  0.51348193  0.89044524  0.82719756     0.97600
O435        O  0.50151230  0.92956800  0.75597274    -0.75700
O436        O  0.46220382  0.87668351  0.82064843    -0.80800
C437        C  0.44199400  0.90453433  0.75123903     1.00200
C438        C  0.45268503  0.87910970  0.85442958     1.06100
O439        O  0.43880242  0.91160275  0.78823285    -0.76500
C440        C  0.50099303  0.91787935  0.72622756     1.04400
Fe441      Fe  0.85101900  0.78208894  0.06659632     1.65800
Fe442      Fe  0.88826869  0.79989752  0.02367933     1.73200
Fe443      Fe  0.86059888  0.82530989  0.08550394     1.54400
O444        O  0.83377191  0.82296822  0.07334532    -0.80200
O445        O  0.90373286  0.81084082  0.07173372    -0.78500
O446        O  0.82930312  0.79600143  0.04664603    -0.82700
O447        O  0.84634696  0.78788472  0.13217394    -0.77600
O448        O  0.86316140  0.83869597  0.02707392    -0.79400
O449        O  0.89457297  0.77540573  0.04916971    -0.82100
C450        C  0.85079038  0.79992076  0.15905630     0.98700
C451        C  0.82400479  0.81139919  0.05557464     1.06100
O452        O  0.86662824  0.80244285  0.05850433    -1.11100
O453        O  0.87524539  0.78873637  0.97175255    -0.73500
O454        O  0.85342384  0.77346993  0.00222749    -0.77000
O455        O  0.85775396  0.81421964  0.14649626    -0.77700
C456        C  0.86265177  0.77785401  0.96920302     0.97600
O457        O  0.87132667  0.76607203  0.08707891    -0.75700
O458        O  0.88484169  0.82401024  0.99360149    -0.80800
C459        C  0.90144190  0.82407433  0.09642057     1.00200
C460        C  0.87447369  0.83708646  0.99664389     1.06100
O461        O  0.88643132  0.83111740  0.10187083    -0.76500
C462        C  0.88722238  0.76444529  0.07479749     1.04400
Fe463      Fe  0.66731205  0.78052770  0.97895409     1.65800
Fe464      Fe  0.62929775  0.79984495  0.01402871     1.73200
Fe465      Fe  0.65976183  0.82433408  0.95818101     1.54400
O466        O  0.68576052  0.82167882  0.97772500    -0.80200
O467        O  0.61573121  0.81193978  0.96381821    -0.78500
O468        O  0.68964011  0.79386691  0.99810023    -0.82700
O469        O  0.67228261  0.78504236  0.91307426    -0.77600
O470        O  0.65499291  0.83826961  0.01521698    -0.79400
O471        O  0.62256165  0.77606035  0.98593825    -0.82100
C472        C  0.66985644  0.79759880  0.88615861     0.98700
C473        C  0.69522194  0.80947694  0.99355247     1.06100
O474        O  0.65215759  0.80158395  0.98381968    -1.11100
O475        O  0.64016381  0.78762457  0.06796884    -0.73500
O476        O  0.66397810  0.77350435  0.04427197    -0.77000
O477        O  0.66489182  0.81277798  0.89840877    -0.77700
C478        C  0.65319998  0.77753251  0.07462981     0.97600
O479        O  0.64699066  0.76422963  0.95904966    -0.75700
O480        O  0.63279156  0.82347166  0.04595246    -0.80800
C481        C  0.61941701  0.82467026  0.93852637     1.00200
C482        C  0.64308013  0.83662686  0.04420019     1.06100
O483        O  0.63493574  0.83072748  0.93480145    -0.76500
C484        C  0.63047331  0.76392648  0.96524506     1.04400
Fe485      Fe  0.84923491  0.75706002  0.56731498     1.65800
Fe486      Fe  0.88599682  0.73749052  0.52543852     1.73200
Fe487      Fe  0.85615882  0.71299249  0.58389978     1.54400
O488        O  0.84929051  0.72406490  0.64350107    -0.80200
O489        O  0.88033761  0.71566115  0.48818875    -0.78500
O490        O  0.84748581  0.75307267  0.63390280    -0.82700
O491        O  0.82596264  0.74397933  0.55607580    -0.77600
O492        O  0.88053175  0.70797643  0.61096437    -0.79400
O493        O  0.87497882  0.75271454  0.47649440    -0.82100
C494        C  0.82072537  0.72819426  0.55265731     0.98700
C495        C  0.84739817  0.73956740  0.65832979     1.06100
O496        O  0.86377740  0.73580235  0.55876002    -1.11100
O497        O  0.89467102  0.75932174  0.55910143    -0.73500
O498        O  0.87044319  0.77328047  0.58010581    -0.77000
O499        O  0.83075382  0.71517019  0.55995018    -0.77700
C500        C  0.88706687  0.77228986  0.57707719     0.97600
O501        O  0.84952713  0.76329752  0.50148053    -0.75700
O502        O  0.89985777  0.72253542  0.56984725    -0.80800
C503        C  0.87197994  0.70141784  0.49436320     1.00200
C504        C  0.89622601  0.71211914  0.60109404     1.06100
O505        O  0.86255795  0.69874709  0.52818122    -0.76500
C506        C  0.86079848  0.76129470  0.47111643     1.04400
Fe507      Fe  0.66322440  0.75495044  0.47807588     1.65800
Fe508      Fe  0.62596345  0.73695946  0.52057220     1.73200
Fe509      Fe  0.65471616  0.71121665  0.46320940     1.54400
O510        O  0.65739258  0.72154105  0.40109230    -0.80200
O511        O  0.62948158  0.71324611  0.55292092    -0.78500
O512        O  0.66764647  0.74869201  0.41262386    -0.82700
O513        O  0.68514019  0.74190425  0.49837477    -0.77600
O514        O  0.62895112  0.70442976  0.44646732    -0.79400
O515        O  0.63859596  0.74881731  0.57218139    -0.82100
C516        C  0.69094549  0.72647347  0.49312646     0.98700
C517        C  0.66326884  0.73614230  0.38713191     1.06100
O518        O  0.64796406  0.73438103  0.48728756    -1.11100
O519        O  0.61942956  0.76110987  0.49305874    -0.73500
O520        O  0.64301285  0.77055883  0.45702128    -0.77000
O521        O  0.68155895  0.71422680  0.47679915    -0.77700
C522        C  0.62701612  0.77210026  0.46792450     0.97600
O523        O  0.66072511  0.76376080  0.54237201    -0.75700
O524        O  0.61112820  0.72515706  0.47236257    -0.80800
C525        C  0.64047194  0.70061259  0.55253664     1.00200
C526        C  0.61375129  0.71137204  0.44980193     1.06100
O527        O  0.65221663  0.69895731  0.52315970    -0.76500
C528        C  0.65144285  0.75939341  0.57537218     1.04400
Fe529      Fe  0.34702105  0.28229473  0.55555784     1.65800
Fe530      Fe  0.38496251  0.30173983  0.52262846     1.73200
Fe531      Fe  0.35463221  0.32526399  0.57945501     1.54400
O532        O  0.32785858  0.32153346  0.56672051    -0.80200
O533        O  0.39838860  0.31164087  0.57622736    -0.78500
O534        O  0.32543946  0.29570108  0.53324625    -0.82700
O535        O  0.34067404  0.28714772  0.62047188    -0.77600
O536        O  0.35686728  0.33850633  0.52070718    -0.79400
O537        O  0.39088921  0.27646526  0.54479778    -0.82100
C538        C  0.34533618  0.29839560  0.64923036     0.98700
C539        C  0.31891048  0.31018453  0.54560174     1.06100
O540        O  0.36221147  0.30304066  0.55248712    -1.11100
O541        O  0.37343498  0.29190840  0.46633101    -0.73500
O542        O  0.35159333  0.27512172  0.49118516    -0.77000
O543        O  0.35222899  0.31312015  0.63939081    -0.77700
C544        C  0.36113015  0.28083736  0.46005067     0.97600
O545        O  0.36690535  0.26633845  0.57785750    -0.75700
O546        O  0.38221696  0.32692049  0.49687088    -0.80800
C547        C  0.39535183  0.32588342  0.59671769     1.00200
C548        C  0.37035941  0.33877121  0.49608902     1.06100
O549        O  0.38015189  0.33295449  0.59688302    -0.76500
C550        C  0.38302183  0.26488601  0.56773490     1.04400
Fe551      Fe  0.15978557  0.28169684  0.48242544     1.65800
Fe552      Fe  0.12282806  0.30207557  0.52019709     1.73200
Fe553      Fe  0.15303216  0.32545825  0.46040401     1.54400
O554        O  0.17934838  0.32188668  0.47661412    -0.80200
O555        O  0.10891592  0.31427984  0.47123917    -0.78500
O556        O  0.18239775  0.29450869  0.50150164    -0.82700
O557        O  0.16501827  0.28614253  0.41667109    -0.77600
O558        O  0.14982882  0.33969128  0.51769213    -0.79400
O559        O  0.11503874  0.27830216  0.49297439    -0.82100
C560        C  0.16232210  0.29840343  0.38911252     0.98700
C561        C  0.18850083  0.30971630  0.49378070     1.06100
O562        O  0.14522936  0.30309620  0.48774202    -1.11100
O563        O  0.13391880  0.28973226  0.57324378    -0.73500
O564        O  0.15653440  0.27436021  0.54738406    -0.77000
O565        O  0.15676281  0.31350802  0.40036375    -0.77700
C566        C  0.14642814  0.27892875  0.57858407     0.97600
O567        O  0.13880786  0.26628248  0.46288167    -0.75700
O568        O  0.12773081  0.32574920  0.55147294    -0.80800
C569        C  0.11244557  0.32686276  0.44549899     1.00200
C570        C  0.13851459  0.33850194  0.54828569     1.06100
O571        O  0.12797146  0.33267567  0.43997953    -0.76500
C572        C  0.12240183  0.26616575  0.47091273     1.04400
Fe573      Fe  0.34686800  0.25512092  0.05391256     1.65800
Fe574      Fe  0.38215481  0.23491197  0.01033587     1.73200
Fe575      Fe  0.35477624  0.21227257  0.07797451     1.54400
O576        O  0.34745403  0.22564904  0.13505961    -0.80200
O577        O  0.37336845  0.21388461  0.97393361    -0.78500
O578        O  0.34947939  0.25437368  0.12056931    -0.82700
O579        O  0.32322719  0.24141969  0.05738942    -0.77600
O580        O  0.37953229  0.20932745  0.10466584    -0.79400
O581        O  0.37070155  0.25170891  0.96498264    -0.82100
C582        C  0.31847863  0.22547382  0.05295132     0.98700
C583        C  0.34769244  0.24170423  0.14730286     1.06100
O584        O  0.36127497  0.23401985  0.04756177    -1.11100
O585        O  0.39252561  0.25591909  0.04447027    -0.73500
O586        O  0.36840663  0.27226861  0.05153443    -0.77000
O587        O  0.32938900  0.21285603  0.05383900    -0.77700
C588        C  0.38509297  0.27052585  0.05235622     0.97600
O589        O  0.34328875  0.25701549  0.98740488    -0.75700
O590        O  0.39669510  0.21835174  0.04990175    -0.80800
C591        C  0.36775912  0.19895078  0.98649410     1.00200
C592        C  0.39448647  0.21050602  0.08628217     1.06100
O593        O  0.36168848  0.19634020  0.02498016    -0.76500
C594        C  0.35524625  0.25754169  0.95843923     1.04400
Fe595      Fe  0.16256337  0.25344615  0.98276310     1.65800
Fe596      Fe  0.12532381  0.23527273  0.02485928     1.73200
Fe597      Fe  0.15309775  0.21014501  0.96217326     1.54400
O598        O  0.15906433  0.22215698  0.90266851    -0.80200
O599        O  0.13122414  0.21324391  0.06120224    -0.78500
O600        O  0.16181143  0.25096922  0.91581427    -0.82700
O601        O  0.18565715  0.23926165  0.98611407    -0.77600
O602        O  0.12801655  0.20593254  0.93805232    -0.79400
O603        O  0.13765784  0.25006241  0.07284808    -0.82100
C604        C  0.18997863  0.22319936  0.98807506     0.98700
C605        C  0.16091307  0.23797537  0.88963308     1.06100
O606        O  0.14698527  0.23287142  0.98988470    -1.11100
O607        O  0.11702851  0.25756324  0.99189641    -0.73500
O608        O  0.14213352  0.27132569  0.97733868    -0.77000
O609        O  0.17901278  0.21079748  0.98315760    -0.77700
C610        C  0.12543539  0.27093029  0.97834998     0.97600
O611        O  0.16443196  0.25739878  0.04961836    -0.75700
O612        O  0.10999767  0.22055632  0.98241830    -0.80800
C613        C  0.13913160  0.19881604  0.05370889     1.00200
C614        C  0.11263265  0.20999552  0.95075891     1.06100
O615        O  0.14740920  0.19577591  0.01817354    -0.76500
C616        C  0.15287545  0.25646182  0.07967206     1.04400
Fe617      Fe  0.98830075  0.10914856  0.82208291     1.65800
Fe618      Fe  0.96942489  0.14742068  0.79190328     1.73200
Fe619      Fe  0.94507848  0.11673249  0.84427296     1.54400
O620        O  0.94828333  0.09015692  0.82791195    -0.80200
O621        O  0.96086208  0.15981673  0.84789895    -0.78500
O622        O  0.97484700  0.08798165  0.79775990    -0.82700
O623        O  0.98309878  0.10199451  0.88643832    -0.77600
O624        O  0.93203773  0.12059883  0.78549027    -0.79400
O625        O  0.99511602  0.15229366  0.81170661    -0.82100
C626        C  0.97133880  0.10580056  0.91474126     0.98700
C627        C  0.96001033  0.08147122  0.80735983     1.06100
O628        O  0.96764651  0.12434557  0.81945172    -1.11100
O629        O  0.97787756  0.13621145  0.73426965    -0.73500
O630        O  0.99544538  0.11469953  0.75770912    -0.77000
O631        O  0.95668188  0.11268200  0.90428396    -0.77700
C632        C  0.98904173  0.12411196  0.72699984     0.97600
O633        O  0.00436566  0.12858133  0.84695385    -0.75700
O634        O  0.94390423  0.14648412  0.76806736    -0.80800
C635        C  0.94622885  0.15705046  0.86676881     1.00200
C636        C  0.93176480  0.13504227  0.76457613     1.06100
O637        O  0.93837293  0.14222708  0.86455136    -0.76500
C638        C  0.00630725  0.14449910  0.83574690     1.04400
Fe639      Fe  0.99799801  0.92612461  0.72075024     1.65800
Fe640      Fe  0.97974120  0.88947053  0.76488726     1.73200
Fe641      Fe  0.95435356  0.91716614  0.70427746     1.54400
O642        O  0.95727708  0.94388714  0.71712234    -0.80200
O643        O  0.96866396  0.87402642  0.71708778    -0.78500
O644        O  0.98451651  0.94799130  0.74252816    -0.82700
O645        O  0.99150830  0.93117139  0.65557864    -0.77600
O646        O  0.94133563  0.91491358  0.76334176    -0.79400
O647        O  0.00411876  0.88312262  0.73944817    -0.82100
C648        C  0.97920378  0.92675447  0.62936548     0.98700
C649        C  0.96897719  0.95340678  0.73532908     1.06100
O650        O  0.97735887  0.91091806  0.72990537    -1.11100
O651        O  0.99090491  0.90276909  0.81614841    -0.73500
O652        O  0.00744615  0.92329710  0.78459844    -0.77000
O653        O  0.96497520  0.91979397  0.64253464    -0.77700
C654        C  0.00246402  0.91475247  0.81828018     0.97600
O655        O  0.01348306  0.90548858  0.69878572    -0.75700
O656        O  0.95570047  0.89278795  0.79534036    -0.80800
C657        C  0.95500227  0.87623219  0.69385275     1.00200
C658        C  0.94279608  0.90337009  0.79316380     1.06100
O659        O  0.94800783  0.89129175  0.68858147    -0.76500
C660        C  0.01505683  0.88980493  0.71270773     1.04400
Fe661      Fe  0.01669093  0.10826076  0.31870378     1.65800
Fe662      Fe  0.03578374  0.14536386  0.27784801     1.73200
Fe663      Fe  0.05916161  0.11845044  0.34661332     1.54400
O664        O  0.04559783  0.11572148  0.40488516    -0.80200
O665        O  0.06026025  0.14106476  0.25107598    -0.78500
O666        O  0.01956382  0.10490158  0.38538101    -0.82700
O667        O  0.03145488  0.08634737  0.30403365    -0.77600
O668        O  0.06397855  0.14441758  0.36463629    -0.79400
O669        O  0.02531816  0.13216102  0.22503637    -0.82100
C670        C  0.04692953  0.08146096  0.31371443     0.98700
C671        C  0.03042483  0.10986581  0.41450791     1.06100
O672        O  0.03724550  0.12403601  0.31426136    -1.11100
O673        O  0.01105551  0.15219525  0.30027184    -0.73500
O674        O  0.99969038  0.12860000  0.33298808    -0.77000
O675        O  0.05789522  0.09151252  0.33300710    -0.77700
C676        C  0.99891276  0.14468401  0.32194595     0.97600
O677        O  0.01059163  0.10959770  0.25307615    -0.75700
O678        O  0.04613421  0.16146180  0.32575265    -0.80800
C679        C  0.07358317  0.13140679  0.25839674     1.00200
C680        C  0.05782159  0.15948369  0.35505044     1.06100
O681        O  0.07482067  0.12129150  0.29147585    -0.76500
C682        C  0.01512283  0.11907268  0.22082525     1.04400
Fe683      Fe  0.02330319  0.92741600  0.22035881     1.65800
Fe684      Fe  0.04046961  0.89045506  0.26606918     1.73200
Fe685      Fe  0.06696686  0.91725869  0.20469371     1.54400
O686        O  0.05657911  0.92170813  0.14329526    -0.80200
O687        O  0.06444273  0.89280324  0.29657744    -0.78500
O688        O  0.02910682  0.93082583  0.15435707    -0.82700
O689        O  0.03744130  0.94921206  0.23827328    -0.77600
O690        O  0.07109834  0.89118372  0.18505508    -0.79400
O691        O  0.02985286  0.90449809  0.31714143    -0.82100
C692        C  0.05338446  0.95404128  0.23575937     0.98700
C693        C  0.04194898  0.92730869  0.12903529     1.06100
O694        O  0.04362476  0.91175366  0.23033403    -1.11100
O695        O  0.01596220  0.88454431  0.24121350    -0.73500
O696        O  0.00686586  0.90724019  0.20150138    -0.77000
O697        O  0.06557695  0.94402045  0.22143940    -0.77700
C698        C  0.00511291  0.89157099  0.21496939     0.97600
O699        O  0.01470261  0.92608515  0.28524969    -0.75700
O700        O  0.05094533  0.87454042  0.21821080    -0.80800
C701        C  0.07819385  0.90215230  0.29348996     1.00200
C702        C  0.06355354  0.87637467  0.19124491     1.06100
O703        O  0.08052564  0.91312887  0.26269142    -0.76500
C704        C  0.01932741  0.91742259  0.31908023     1.04400
C705        C  0.05044897  0.03856774  0.25053065     0.14100
C706        C  0.05887510  0.02756229  0.28109543     0.01100
C707        C  0.06451015  0.03472869  0.32144462     0.16100
C708        C  0.06133826  0.05249209  0.33150342     0.25500
C709        C  0.05216663  0.06327533  0.30169500    -0.40900
C710        C  0.04703651  0.05620501  0.26080949     0.32500
C711        C  0.05988960  0.00830988  0.27264386     0.01100
F712        F  0.07265774  0.02437064  0.35157081    -0.13200
F713        F  0.03851307  0.06636809  0.23088589    -0.13700
C714        C  0.06910664  0.00154023  0.23613351     0.16100
C715        C  0.06798959  0.98356970  0.22534291     0.25500
C716        C  0.05739216  0.97221003  0.25052917    -0.40800
C717        C  0.04882159  0.97891273  0.28806717     0.32400
C718        C  0.05010543  0.99673186  0.29905987     0.14100
F719        F  0.07874155  0.01244698  0.21022771    -0.13200
F720        F  0.03874144  0.96823171  0.31356518    -0.13700
F721        F  0.07630249  0.97754016  0.18877388    -0.16000
F722        F  0.04090036  0.00289079  0.33415039    -0.14500
F723        F  0.04468490  0.03198421  0.21154896    -0.14500
F724        F  0.06633357  0.05886895  0.37133736    -0.15900
C725        C  0.04580155  0.91909976  0.00619663     0.14100
C726        C  0.03160999  0.92900215  0.99022427     0.01100
C727        C  0.02213045  0.93985909  0.01908775     0.16100
C728        C  0.02601042  0.93997192  0.06397587     0.25500
C729        C  0.03951115  0.92918941  0.08082652    -0.40900
C730        C  0.04977045  0.91918148  0.05114665     0.32500
C731        C  0.02463150  0.92566546  0.94575655     0.01100
F732        F  0.00846447  0.94966216  0.00395506    -0.13200
F733        F  0.06282750  0.90847835  0.06581818    -0.13700
C734        C  0.00870557  0.91650356  0.94170566     0.16100
C735        C  0.00156851  0.91307625  0.90045109     0.25500
C736        C  0.01024077  0.91875377  0.86195584    -0.40800
C737        C  0.02636132  0.92790939  0.86609382     0.32400
C738        C  0.03353996  0.93125285  0.90781071     0.14100
F739        F  0.00010872  0.91065796  0.97805636    -0.13200
F740        F  0.03533786  0.93334679  0.82994454    -0.13700
F741        F  0.98601215  0.90429144  0.89852416    -0.16000
F742        F  0.04907216  0.94001854  0.91121334    -0.14500
F743        F  0.05496120  0.90834431  0.97877751    -0.14500
F744        F  0.01614785  0.95022302  0.09104886    -0.15900
C745        C  0.99842226  0.94268274  0.52155161     0.14100
C746        C  0.99075562  0.93090077  0.49156889     0.01100
C747        C  0.97775925  0.91913583  0.50612790     0.16100
C748        C  0.97329802  0.91836178  0.55072171     0.25500
C749        C  0.98188055  0.92933424  0.58149912    -0.40900
C750        C  0.99400360  0.94196332  0.56612188     0.32500
C751        C  0.99821474  0.92901220  0.44700111     0.01100
F752        F  0.97031893  0.90751888  0.47765035    -0.13200
F753        F  0.00191459  0.95336384  0.59433887    -0.13700
C754        C  0.01533433  0.92235044  0.44240017     0.16100
C755        C  0.02228127  0.91905242  0.40079355     0.25500
C756        C  0.01223722  0.92235662  0.36275076    -0.40800
C757        C  0.99524369  0.92960945  0.36734255     0.32400
C758        C  0.98822935  0.93277211  0.40929076     0.14100
F759        F  0.02513114  0.91843558  0.47847361    -0.13200
F760        F  0.98516193  0.93295685  0.33143382    -0.13700
F761        F  0.03889016  0.91257036  0.39783098    -0.16000
F762        F  0.97165379  0.93928961  0.41318028    -0.14500
F763        F  0.01076089  0.95439955  0.50781942    -0.14500
F764        F  0.96147067  0.90604490  0.56400320    -0.15900
C765        C  0.99694634  0.09609232  0.01858132     0.14100
C766        C  0.98608377  0.10382126  0.05030278     0.01100
C767        C  0.96936916  0.10999781  0.03867012     0.16100
C768        C  0.96395107  0.10951847  0.99483984     0.25500
C769        C  0.97538342  0.10301537  0.96192039    -0.40900
C770        C  0.99165849  0.09558896  0.97470722     0.32500
C771        C  0.99318195  0.10755178  0.09405922     0.01100
F772        F  0.95870852  0.11737643  0.06946190    -0.13200
F773        F  0.00292728  0.08861833  0.94469401    -0.13700
C774        C  0.00145780  0.12373789  0.10171228     0.16100
C775        C  0.00879077  0.12742777  0.14268215     0.25500
C776        C  0.00791829  0.11489711  0.17681750    -0.40800
C777        C  0.99954146  0.09858792  0.16870191     0.32400
C778        C  0.99224186  0.09498492  0.12751072     0.14100
F779        F  0.00243788  0.13597479  0.06926327    -0.13200
F780        F  0.99850510  0.08603284  0.20034374    -0.13700
F781        F  0.01643822  0.14340445  0.14892750    -0.16000
F782        F  0.98426317  0.07925055  0.12018011    -0.14500
F783        F  0.01314998  0.08999817  0.02979096    -0.14500
F784        F  0.94794026  0.11634757  0.98461861    -0.15900
C785        C  0.99224597  0.12679675  0.60245300     0.14100
C786        C  0.00586080  0.11483836  0.59372548     0.01100
C787        C  0.01363970  0.10556415  0.62844041     0.16100
C788        C  0.00815821  0.10844958  0.67167078     0.25500
C789        C  0.99475197  0.12079574  0.68099398    -0.40900
C790        C  0.98671188  0.12977713  0.64560739     0.32500
C791        C  0.01241845  0.11251867  0.54851838     0.01100
F792        F  0.02655742  0.09363315  0.62033384    -0.13200
F793        F  0.97348419  0.14149597  0.65244559    -0.13700
C794        C  0.02966446  0.11756758  0.53791823     0.16100
C795        C  0.03578627  0.11613760  0.49476853     0.25500
C796        C  0.02469696  0.10958012  0.46124787    -0.40800
C797        C  0.00743407  0.10417406  0.47252842     0.32400
C798        C  0.00139141  0.10570594  0.51572211     0.14100
F799        F  0.04038500  0.12452051  0.56921195    -0.13200
F800        F  0.99612956  0.09778767  0.44176574    -0.13700
F801        F  0.05240262  0.12171095  0.48585162    -0.16000
F802        F  0.98468399  0.10064170  0.52553038    -0.14500
F803        F  0.98457912  0.13591876  0.56917510    -0.14500
F804        F  0.01613481  0.09918576  0.70421372    -0.15900
C805        C  0.94767616  0.03313563  0.81508854     0.14100
C806        C  0.95628398  0.02629552  0.77785001     0.01100
C807        C  0.96467386  0.03786912  0.74864385     0.16100
C808        C  0.96501966  0.05592007  0.75715954     0.25500
C809        C  0.95693019  0.06283353  0.79512757    -0.40900
C810        C  0.94787907  0.05131148  0.82354025     0.32500
C811        C  0.95754922  0.00708809  0.77005832     0.01100
F812        F  0.97330804  0.03155460  0.71282254    -0.13200
F813        F  0.94016912  0.05747424  0.86079756    -0.13700
C814        C  0.95045960  0.99967393  0.73156789     0.16100
C815        C  0.95374041  0.98205563  0.72089838     0.25500
C816        C  0.96439401  0.97161403  0.74828182    -0.40800
C817        C  0.97103985  0.97890169  0.78754216     0.32400
C818        C  0.96754056  0.99646959  0.79847125     0.14100
F819        F  0.94074873  0.00969029  0.70368896    -0.13200
F820        F  0.98098345  0.96902451  0.81525321    -0.13700
F821        F  0.94726765  0.97547997  0.68261587    -0.16000
F822        F  0.97458366  0.00334693  0.83579258    -0.14500
F823        F  0.93942655  0.02217101  0.84368830    -0.14500
F824        F  0.97368322  0.06662689  0.72868106    -0.15900
C825        C  0.11854248  0.14285983  0.21579489     0.14100
C826        C  0.11453541  0.14659221  0.17164194     0.01100
C827        C  0.09796995  0.14181306  0.15473718     0.16100
C828        C  0.08502048  0.13511702  0.18257451     0.25500
C829        C  0.08844880  0.13303544  0.22766629    -0.40900
C830        C  0.10556862  0.13602148  0.24369687     0.32500
C831        C  0.12573958  0.15861303  0.14566386     0.01100
F832        F  0.09367201  0.14541998  0.11232765    -0.13200
F833        F  0.10918291  0.13418633  0.28719010    -0.13700
C834        C  0.13133300  0.15392903  0.10321777     0.16100
C835        C  0.13726505  0.16686207  0.07402411     0.25500
C836        C  0.13754591  0.18469448  0.08695484    -0.40800
C837        C  0.13368004  0.18900878  0.13096075     0.32400
C838        C  0.12776583  0.17609168  0.15997978     0.14100
F839        F  0.12975403  0.13704495  0.08902735    -0.13200
F840        F  0.13453166  0.20594325  0.14522419    -0.13700
F841        F  0.14112764  0.16210565  0.03205305    -0.16000
F842        F  0.12233213  0.18101965  0.20074481    -0.14500
F843        F  0.13453637  0.14720161  0.23261812    -0.14500
F844        F  0.06867061  0.13196078  0.16616487    -0.15900
C845        C  0.06526825  0.19831869  0.92144436     0.14100
C846        C  0.06759717  0.18315020  0.89581235     0.01100
C847        C  0.08468275  0.17741577  0.88587502     0.16100
C848        C  0.09933937  0.18651698  0.90215348     0.25500
C849        C  0.09714950  0.20150215  0.92923312    -0.40900
C850        C  0.07985597  0.20741615  0.93809529     0.32500
C851        C  0.05214636  0.17314012  0.88006341     0.01100
F852        F  0.08715158  0.16285645  0.86065999    -0.13200
F853        F  0.07695086  0.22188341  0.96334865    -0.13700
C854        C  0.04193381  0.17960294  0.84528005     0.16100
C855        C  0.02713292  0.17029194  0.83069913     0.25500
C856        C  0.02216783  0.15432250  0.85099681    -0.40800
C857        C  0.03259399  0.14788217  0.88594220     0.32400
C858        C  0.04745119  0.15721261  0.90018507     0.14100
F859        F  0.04644315  0.19489170  0.82511393    -0.13200
F860        F  0.02830019  0.13271991  0.90699824    -0.13700
F861        F  0.01786809  0.17683918  0.79621261    -0.16000
F862        F  0.05712621  0.15085560  0.93420739    -0.14500
F863        F  0.04879210  0.20404565  0.93132718    -0.14500
F864        F  0.11562670  0.18024172  0.89243619    -0.15900
C865        C  0.27594970  0.20518996  0.01055191     0.14100
C866        C  0.26332876  0.21630065  0.02975463     0.01100
C867        C  0.26880058  0.22965702  0.05857517     0.16100
C868        C  0.28671032  0.23238636  0.06676465     0.25500
C869        C  0.29949965  0.22165212  0.04656785    -0.40900
C870        C  0.29392126  0.20771586  0.01923497     0.32500
C871        C  0.24464410  0.21544087  0.01636159     0.01100
F872        F  0.25676675  0.24051859  0.07745230    -0.13200
F873        F  0.30587370  0.19709616  0.99922279    -0.13700
C874        C  0.23179198  0.20840911  0.04461445     0.16100
C875        C  0.21385531  0.21003264  0.03426551     0.25500
C876        C  0.20864619  0.21905492  0.99609086    -0.40800
C877        C  0.22154485  0.22555769  0.96724935     0.32400
C878        C  0.23941673  0.22360846  0.97710653     0.14100
F879        F  0.23661905  0.20056919  0.08285694    -0.13200
F880        F  0.21678003  0.23414259  0.92995456    -0.13700
F881        F  0.20157978  0.20378153  0.06273483    -0.16000
F882        F  0.25165381  0.23048775  0.94944373    -0.14500
F883        F  0.27087103  0.19221925  0.98251640    -0.14500
F884        F  0.29154368  0.24560190  0.09437824    -0.15900
C885        C  0.06749178  0.20754931  0.38249715     0.14100
C886        C  0.08165530  0.20593851  0.41178566     0.01100
C887        C  0.08700288  0.18912581  0.42532797     0.16100
C888        C  0.07878249  0.17404848  0.40854767     0.25500
C889        C  0.06505813  0.17547628  0.37736317    -0.40900
C890        C  0.05925976  0.19252327  0.36538956     0.32500
C891        C  0.09166868  0.22168013  0.42598978     0.01100
F892        F  0.10047569  0.18732217  0.45435423    -0.13200
F893        F  0.04600093  0.19479744  0.33596064    -0.13700
C894        C  0.08405969  0.23429561  0.45384298     0.16100
C895        C  0.09387928  0.24886667  0.46808471     0.25500
C896        C  0.11154968  0.25114493  0.45440089    -0.40800
C897        C  0.11889136  0.23857445  0.42543609     0.32400
C898        C  0.10906185  0.22402102  0.41160939     0.14100
F899        F  0.06722763  0.23226950  0.46809487    -0.13200
F900        F  0.13561765  0.24027807  0.41018844    -0.13700
F901        F  0.08611611  0.26049727  0.49593976    -0.16000
F902        F  0.11651053  0.21219546  0.38371751    -0.14500
F903        F  0.06214981  0.22370575  0.36887616    -0.14500
F904        F  0.08467785  0.15808273  0.42208441    -0.15900
C905        C  0.16182510  0.24917140  0.67139944     0.14100
C906        C  0.15480957  0.25786841  0.70813003     0.01100
C907        C  0.14473849  0.27314096  0.70223794     0.16100
C908        C  0.14195733  0.27989176  0.66024608     0.25500
C909        C  0.14925931  0.27148996  0.62308142    -0.40900
C910        C  0.15914026  0.25593751  0.62913722     0.32500
C911        C  0.15826024  0.25148986  0.75302490     0.01100
F912        F  0.13754778  0.28153441  0.73739505    -0.13200
F913        F  0.16605861  0.24714814  0.59427633    -0.13700
C914        C  0.16756181  0.26221797  0.78253566     0.16100
C915        C  0.16913187  0.25740669  0.82656184     0.25500
C916        C  0.16138921  0.24170882  0.84193455    -0.40800
C917        C  0.15270129  0.23057802  0.81175225     0.32400
C918        C  0.15115885  0.23546747  0.76757334     0.14100
F919        F  0.17473873  0.27764558  0.76881339    -0.13200
F920        F  0.14471704  0.21554433  0.82540126    -0.13700
F921        F  0.17792180  0.26834936  0.85430303    -0.16000
F922        F  0.14187078  0.22507048  0.73955526    -0.14500
F923        F  0.17155227  0.23432504  0.67659201    -0.14500
F924        F  0.13233557  0.29486282  0.65630047    -0.15900
C925        C  0.17581225  0.27977871  0.17480906     0.14100
C926        C  0.16390296  0.27665002  0.20909205     0.01100
C927        C  0.14887435  0.26642083  0.20149808     0.16100
C928        C  0.14547156  0.25963467  0.15978908     0.25500
C929        C  0.15706776  0.26308117  0.12448371    -0.40900
C930        C  0.17245557  0.27305616  0.13271084     0.32500
C931        C  0.16654679  0.28427547  0.25301310     0.01100
F932        F  0.13738223  0.26309980  0.23472774    -0.13200
F933        F  0.18411232  0.27661990  0.10004203    -0.13700
C934        C  0.15687201  0.29917808  0.26538861     0.16100
C935        C  0.15622914  0.30439186  0.30940164     0.25500
C936        C  0.16518774  0.29461321  0.34183411    -0.40800
C937        C  0.17581988  0.28030572  0.32863097     0.32400
C938        C  0.17644341  0.27518296  0.28449495     0.14100
F939        F  0.14721271  0.30806012  0.23508221    -0.13200
F940        F  0.18519499  0.27091220  0.35852531    -0.13700
F941        F  0.14587503  0.31828262  0.32044141    -0.16000
F942        F  0.18590072  0.26074707  0.27281306    -0.14500
F943        F  0.19049712  0.28958139  0.18197918    -0.14500
F944        F  0.13077348  0.24966841  0.15430420    -0.15900
C945        C  0.34276351  0.30204138  0.77322276     0.14100
C946        C  0.34300404  0.28422328  0.78527826     0.01100
C947        C  0.34283173  0.27116819  0.75267874     0.16100
C948        C  0.34289193  0.27581583  0.70844175     0.25500
C949        C  0.34326430  0.29368565  0.69598913    -0.40900
C950        C  0.34289908  0.30677264  0.72885528     0.32500
C951        C  0.34502050  0.27905590  0.83154639     0.01100
F952        F  0.34361956  0.25386486  0.76372522    -0.13200
F953        F  0.34287386  0.32412121  0.71815806    -0.13700
C954        C  0.33246359  0.26812535  0.85165769     0.16100
C955        C  0.33552995  0.26144782  0.89370777     0.25500
C956        C  0.35129527  0.26547184  0.91571198    -0.40800
C957        C  0.36359668  0.27683014  0.89607985     0.32400
C958        C  0.36044954  0.28362842  0.85429212     0.14100
F959        F  0.31747920  0.26358590  0.83002539    -0.13200
F960        F  0.37869155  0.28128936  0.91736856    -0.13700
F961        F  0.32354651  0.25037480  0.91198374    -0.16000
F962        F  0.37283367  0.29401771  0.83517365    -0.14500
F963        F  0.34272547  0.31482502  0.80448507    -0.14500
F964        F  0.34360636  0.26274258  0.67797911    -0.15900
C965        C  0.35243080  0.23910700  0.27106545     0.14100
C966        C  0.34745192  0.25620476  0.28343484     0.01100
C967        C  0.34085792  0.26781893  0.25168140     0.16100
C968        C  0.34021206  0.26280151  0.20761717     0.25500
C969        C  0.34617350  0.24601445  0.19453838    -0.40900
C970        C  0.35179161  0.23401132  0.22689817     0.32500
C971        C  0.35062060  0.26250276  0.32857046     0.01100
F972        F  0.33546669  0.28422460  0.26330673    -0.13200
F973        F  0.35768704  0.21774571  0.21563450    -0.13700
C974        C  0.36262230  0.27625021  0.33578935     0.16100
C975        C  0.36607786  0.28218641  0.37833849     0.25500
C976        C  0.35758761  0.27441295  0.41473740    -0.40800
C977        C  0.34542844  0.26061207  0.40712135     0.32400
C978        C  0.34202592  0.25473817  0.36438609     0.14100
F979        F  0.37122910  0.28378121  0.30145562    -0.13200
F980        F  0.33680757  0.25268172  0.44084911    -0.13700
F981        F  0.37766779  0.29564967  0.38356976    -0.16000
F982        F  0.33016227  0.24159887  0.35787387    -0.14500
F983        F  0.35888047  0.22770737  0.30141262    -0.14500
F984        F  0.33404001  0.27453404  0.17767968    -0.15900
C985        C  0.23305579  0.30766290  0.54943913     0.14100
C986        C  0.24383298  0.31606741  0.51828089     0.01100
C987        C  0.23611391  0.32345831  0.48058526     0.16100
C988        C  0.21794166  0.32209903  0.47358246     0.25500
C989        C  0.20723979  0.31307816  0.50388975    -0.40900
C990        C  0.21492041  0.30607687  0.54217029     0.32500
C991        C  0.26322620  0.31595265  0.52354583     0.01100
F992        F  0.24627459  0.33164294  0.45006218    -0.13200
F993        F  0.20487009  0.29753453  0.57232294    -0.13700
C994        C  0.27371695  0.30669082  0.49334574     0.16100
C995        C  0.29190843  0.30541119  0.49960797     0.25500
C996        C  0.30001246  0.31343076  0.53624175    -0.40800
C997        C  0.28952471  0.32318129  0.56575495     0.32400
C998        C  0.27126665  0.32433336  0.55954966     0.14100
F999        F  0.26621741  0.29825715  0.45865024    -0.13200
F1000       F  0.29677506  0.33083994  0.60184968    -0.13700
F1001       F  0.30156600  0.29610134  0.47003042    -0.16000
F1002       F  0.26136962  0.33340286  0.58906846    -0.14500
F1003       F  0.24022228  0.30029751  0.58595783    -0.14500
F1004       F  0.21097344  0.32870663  0.43593126    -0.15900
C1005       C  0.77497794  0.70792268  0.54548552     0.14100
C1006       C  0.76556645  0.72151378  0.52490923     0.01100
C1007       C  0.77459816  0.73654029  0.51037482     0.16100
C1008       C  0.79261243  0.73837256  0.51800078     0.25500
C1009       C  0.80204987  0.72516037  0.54040345    -0.40900
C1010       C  0.79311246  0.70969249  0.55313458     0.32500
C1011       C  0.74616153  0.72088660  0.52111537     0.01100
F1012       F  0.76582685  0.74967021  0.48945585    -0.13200
F1013       F  0.80167264  0.69668750  0.57500580    -0.13700
C1014       C  0.73606815  0.73368856  0.54275401     0.16100
C1015       C  0.71799261  0.73483181  0.53539217     0.25500
C1016       C  0.70955927  0.72322127  0.50579465    -0.40800
C1017       C  0.71954068  0.70966090  0.48622494     0.32400
C1018       C  0.73774232  0.70853072  0.49385317     0.14100
F1019       F  0.74386612  0.74544909  0.57028171    -0.13200
F1020       F  0.71193754  0.69811817  0.45787154    -0.13700
F1021       F  0.70883474  0.74762178  0.55670880    -0.16000
F1022       F  0.74729488  0.69598822  0.47279916    -0.14500
F1023       F  0.76644643  0.69335129  0.56010499    -0.14500
F1024       F  0.80074771  0.75324599  0.50382094    -0.15900
C1025       C  0.92568137  0.80308415  0.59820942     0.14100
C1026       C  0.91807736  0.81540715  0.62679248     0.01100
C1027       C  0.90058117  0.81323210  0.64042481     0.16100
C1028       C  0.89059514  0.79908990  0.62488564     0.25500
C1029       C  0.89794266  0.78688223  0.59504091    -0.40900
C1030       C  0.91572268  0.78895006  0.58230497     0.32500
C1031       C  0.92825032  0.83077943  0.64189646     0.01100
F1032       F  0.89320823  0.82480256  0.66910240    -0.13200
F1033       F  0.92341234  0.77760188  0.55360315    -0.13700
C1034       C  0.92400580  0.84763650  0.62650904     0.16100
C1035       C  0.93306921  0.86238940  0.64213871     0.25500
C1036       C  0.94650928  0.86051803  0.67384361    -0.40800
C1037       C  0.95089661  0.84341358  0.68853577     0.32400
C1038       C  0.94184975  0.82871623  0.67256038     0.14100
F1039       F  0.91096667  0.84978232  0.59641794    -0.13200
F1040       F  0.96346052  0.84084789  0.71967561    -0.13700
F1041       F  0.92853123  0.87847889  0.62641468    -0.16000
F1042       F  0.94593763  0.81248769  0.68820773    -0.14500
F1043       F  0.94264780  0.80501230  0.58488435    -0.14500
F1044       F  0.87378512  0.79731235  0.63950628    -0.15900
C1045       C  0.64484804  0.76508613  0.19400003     0.14100
C1046       C  0.66028253  0.75591497  0.20481258     0.01100
C1047       C  0.67350784  0.75390820  0.17296163     0.16100
C1048       C  0.67131125  0.76092144  0.13073334     0.25500
C1049       C  0.65576658  0.77012077  0.11955025    -0.40900
C1050       C  0.64256974  0.77209777  0.15196503     0.32500
C1051       C  0.66259367  0.74893630  0.24985259     0.01100
F1052       F  0.68850025  0.74498094  0.18266990    -0.13200
F1053       F  0.62732474  0.78076148  0.14324746    -0.13700
C1054       C  0.65042622  0.73682559  0.26706423     0.16100
C1055       C  0.65123772  0.73189753  0.31128351     0.25500
C1056       C  0.66419772  0.73911543  0.33915292    -0.40800
C1057       C  0.67689170  0.75057694  0.32130532     0.32400
C1058       C  0.67611789  0.75540384  0.27697122     0.14100
F1059       F  0.63739603  0.73019715  0.24128164    -0.13200
F1060       F  0.68983733  0.75740535  0.34701713    -0.13700
F1061       F  0.63863872  0.72095749  0.32739431    -0.16000
F1062       F  0.68802724  0.76712390  0.26109159    -0.14500
F1063       F  0.63204010  0.76755262  0.22459730    -0.14500
F1064       F  0.68451736  0.75879000  0.10109051    -0.15900
C1065       C  0.67358737  0.78560325  0.66691405     0.14100
C1066       C  0.66509939  0.77880226  0.70412045     0.01100
C1067       C  0.65180416  0.76617443  0.69904905     0.16100
C1068       C  0.64717980  0.76012270  0.65735522     0.25500
C1069       C  0.65587243  0.76656122  0.61954837    -0.40900
C1070       C  0.66909249  0.77950665  0.62490585     0.32500
C1071       C  0.66964455  0.78490741  0.74866536     0.01100
F1072       F  0.64314443  0.75979322  0.73474447    -0.13200
F1073       F  0.67772752  0.78629600  0.58969344    -0.13700
C1074       C  0.66467565  0.80177132  0.76254161     0.16100
C1075       C  0.66579577  0.80637946  0.80695338     0.25500
C1076       C  0.67188191  0.79407654  0.83832600    -0.40800
C1077       C  0.67815102  0.77762316  0.82338421     0.32400
C1078       C  0.67693237  0.77309256  0.77898029     0.14100
F1079       F  0.65756136  0.81334319  0.73354898    -0.13200
F1080       F  0.68477919  0.76555063  0.85181043    -0.13700
F1081       F  0.65987599  0.82251207  0.81929135    -0.16000
F1082       F  0.68212968  0.75681925  0.76575963    -0.14500
F1083       F  0.68640346  0.79795205  0.67137850    -0.14500
F1084       F  0.63426431  0.74780005  0.65442692    -0.15900
C1085       C  0.85457066  0.80505683  0.28293364     0.14100
C1086       C  0.84800707  0.78881889  0.29745358     0.01100
C1087       C  0.84044265  0.77716253  0.26705137     0.16100
C1088       C  0.84052940  0.78112900  0.22223346     0.25500
C1089       C  0.84830697  0.79686910  0.20694050    -0.40900
C1090       C  0.85470752  0.80910842  0.23814842     0.32500
C1091       C  0.85098262  0.78309203  0.34317210     0.01100
F1092       F  0.83394898  0.76139997  0.28048216    -0.13200
F1093       F  0.86177854  0.82472992  0.22551932    -0.13700
C1094       C  0.83681637  0.77862838  0.37063313     0.16100
C1095       C  0.83994835  0.77181052  0.41262317     0.25500
C1096       C  0.85733901  0.76922970  0.42757988    -0.40800
C1097       C  0.87147587  0.77401666  0.40008197     0.32400
C1098       C  0.86830300  0.78089795  0.35834051     0.14100
F1099       F  0.81997024  0.78070925  0.35655458    -0.13200
F1100       F  0.88842353  0.77208176  0.41353738    -0.13700
F1101       F  0.82597162  0.76714514  0.43791348    -0.16000
F1102       F  0.88219859  0.78487011  0.33200242    -0.14500
F1103       F  0.86144747  0.81673657  0.31213022    -0.14500
F1104       F  0.83359170  0.76916237  0.19388409    -0.15900
C1105       C  0.83783660  0.76076960  0.76821753     0.14100
C1106       C  0.84794117  0.75023340  0.79649642     0.01100
C1107       C  0.85617753  0.73506174  0.77996317     0.16100
C1108       C  0.85517806  0.73101272  0.73522862     0.25500
C1109       C  0.84594081  0.74214848  0.70630036    -0.40900
C1110       C  0.83685826  0.75678135  0.72342764     0.32500
C1111       C  0.85156502  0.75618977  0.84180469     0.01100
F1112       F  0.86583660  0.72458914  0.80691584    -0.13200
F1113       F  0.82746119  0.76753462  0.69659614    -0.13700
C1114       C  0.83782369  0.75875145  0.87206480     0.16100
C1115       C  0.84139477  0.76551630  0.91396213     0.25500
C1116       C  0.85876445  0.76994568  0.92592906    -0.40800
C1117       C  0.87250409  0.76710345  0.89566299     0.32400
C1118       C  0.86892372  0.76029145  0.85403419     0.14100
F1119       F  0.82095940  0.75481125  0.86087042    -0.13200
F1120       F  0.88947183  0.77083127  0.90641024    -0.13700
F1121       F  0.82781034  0.76832241  0.94216504    -0.16000
F1122       F  0.88238606  0.75820435  0.82505866    -0.14500
F1123       F  0.82982520  0.77554247  0.78348017    -0.14500
F1124       F  0.86430659  0.71691630  0.71984771    -0.15900
C1125       C  0.73973782  0.80626164  0.04943522     0.14100
C1126       C  0.74977510  0.81826166  0.02484615     0.01100
C1127       C  0.74154316  0.82828844  0.99199556     0.16100
C1128       C  0.72360841  0.82596530  0.98291121     0.25500
C1129       C  0.71366583  0.81338958  0.00626458    -0.40900
C1130       C  0.72186985  0.80379143  0.04017221     0.32500
C1131       C  0.76908652  0.81900457  0.03095712     0.01100
F1132       F  0.75100777  0.84002760  0.96801856    -0.13200
F1133       F  0.71264783  0.79183650  0.06408533    -0.13700
C1134       C  0.78024915  0.81303815  0.99721876     0.16100
C1135       C  0.79831442  0.81125159  0.00472256     0.25500
C1136       C  0.80552128  0.81567690  0.04582207    -0.40800
C1137       C  0.79452709  0.82254795  0.07883666     0.32400
C1138       C  0.77637815  0.82405466  0.07156763     0.14100
F1139       F  0.77350208  0.80802099  0.95777859    -0.13200
F1140       F  0.80118459  0.82668302  0.11900941    -0.13700
F1141       F  0.80875618  0.80484133  0.97215780    -0.16000
F1142       F  0.76583201  0.82990748  0.10455423    -0.14500
F1143       F  0.74746294  0.79631173  0.08109945    -0.14500
F1144       F  0.71623525  0.83534753  0.94969716    -0.15900
C1145       C  0.88660773  0.86001722  0.89189450     0.14100
C1146       C  0.89030738  0.87702263  0.90764422     0.01100
C1147       C  0.88555565  0.88158131  0.95082289     0.16100
C1148       C  0.87861301  0.86882987  0.97909801     0.25500
C1149       C  0.87663751  0.85135802  0.96451512    -0.40900
C1150       C  0.87990543  0.84724263  0.92023092     0.32500
C1151       C  0.90235489  0.88831459  0.88215441     0.01100
F1152       F  0.88898325  0.89797395  0.96651158    -0.13200
F1153       F  0.87773342  0.83052974  0.90523545    -0.13700
C1154       C  0.89789312  0.89389924  0.83958131     0.16100
C1155       C  0.91091583  0.90046183  0.81144800     0.25500
C1156       C  0.92855973  0.90121102  0.82550665    -0.40800
C1157       C  0.93270461  0.89689390  0.86918681     0.32400
C1158       C  0.91968422  0.89058551  0.89738725     0.14100
F1159       F  0.88121688  0.89177984  0.82431721    -0.13200
F1160       F  0.94959613  0.89772561  0.88370323    -0.13700
F1161       F  0.90660030  0.90435425  0.76922299    -0.16000
F1162       F  0.92436687  0.88506230  0.93822055    -0.14500
F1163       F  0.89119853  0.85527561  0.85035727    -0.14500
F1164       F  0.87563372  0.87310686  0.02183949    -0.15900
C1165       C  0.92921886  0.85252682  0.17190660     0.14100
C1166       C  0.94609290  0.85014548  0.15401871     0.01100
C1167       C  0.94847364  0.83817043  0.11934102     0.16100
C1168       C  0.93407679  0.82914236  0.10171842     0.25500
C1169       C  0.91695642  0.83204820  0.11833812    -0.40900
C1170       C  0.91476825  0.84359950  0.15424760     0.32500
C1171       C  0.96107933  0.86069498  0.17029828     0.01100
F1172       F  0.96465289  0.83580394  0.10119231    -0.13200
F1173       F  0.89862993  0.84638881  0.17220707    -0.13700
C1174       C  0.97614414  0.85240922  0.18711401     0.16100
C1175       C  0.99044726  0.86241976  0.20160307     0.25500
C1176       C  0.98992083  0.88097536  0.19960171    -0.40800
C1177       C  0.97471493  0.88921942  0.18285531     0.32400
C1178       C  0.96046744  0.87915148  0.16824937     0.14100
F1179       F  0.97694587  0.83458426  0.18981889    -0.13200
F1180       F  0.97347175  0.90703587  0.18110245    -0.13700
F1181       F  0.00491107  0.85386929  0.21687183    -0.16000
F1182       F  0.94614246  0.88743325  0.15133397    -0.14500
F1183       F  0.92672987  0.86363249  0.20638670    -0.14500
F1184       F  0.93687160  0.81821010  0.06702919    -0.15900
C1185       C  0.55978777  0.87222562  0.82830209     0.14100
C1186       C  0.55920680  0.86071680  0.86454102     0.01100
C1187       C  0.54328407  0.85890332  0.88798438     0.16100
C1188       C  0.52827415  0.86832024  0.87529970     0.25500
C1189       C  0.52906057  0.88009237  0.83986565    -0.40900
C1190       C  0.54490392  0.88201092  0.81649048     0.32500
C1191       C  0.57526702  0.85108976  0.87897218     0.01100
F1192       F  0.54240972  0.84844572  0.92409955    -0.13200
F1193       F  0.54583086  0.89311550  0.78159524    -0.13700
C1194       C  0.59097052  0.86028527  0.88786216     0.16100
C1195       C  0.60564912  0.85149685  0.90490680     0.25500
C1196       C  0.60484456  0.83335091  0.91428405    -0.40800
C1197       C  0.58933602  0.82403987  0.90387413     0.32400
C1198       C  0.57477663  0.83279273  0.88602384     0.14100
F1199       F  0.59183672  0.87799727  0.88229356    -0.13200
F1200       F  0.58818251  0.80645408  0.91131290    -0.13700
F1201       F  0.62027697  0.86102542  0.91473383    -0.16000
F1202       F  0.56009706  0.82338726  0.87597989    -0.14500
F1203       F  0.57470894  0.87383801  0.80399776    -0.14500
F1204       F  0.51312670  0.86642749  0.89857339    -0.15900
C1205       C  0.41890671  0.23011557  0.58164587     0.14100
C1206       C  0.41100703  0.21843108  0.61153117     0.01100
C1207       C  0.39396284  0.22206288  0.62696294     0.16100
C1208       C  0.38494354  0.23706938  0.61286495     0.25500
C1209       C  0.39281856  0.24897825  0.58303555    -0.40900
C1210       C  0.40996359  0.24523441  0.56758122     0.32500
C1211       C  0.42059254  0.20262803  0.62742697     0.01100
F1212       F  0.38612543  0.21121448  0.65657101    -0.13200
F1213       F  0.41807760  0.25601924  0.53833132    -0.13700
C1214       C  0.43683088  0.20441711  0.64916390     0.16100
C1215       C  0.44539772  0.18966192  0.66648576     0.25500
C1216       C  0.43786558  0.17274647  0.66252287    -0.40800
C1217       C  0.42174340  0.17097031  0.63989395     0.32400
C1218       C  0.41322971  0.18575100  0.62254265     0.14100
F1219       F  0.44412143  0.22058021  0.65500992    -0.13200
F1220       F  0.41379838  0.15502384  0.63598365    -0.13700
F1221       F  0.46103337  0.19200819  0.68740357    -0.16000
F1222       F  0.39766258  0.18358634  0.60119725    -0.14500
F1223       F  0.43522343  0.22671369  0.56543794    -0.14500
F1224       F  0.36850313  0.23990450  0.62895172    -0.15900
C1225       C  0.41244217  0.14224560  0.89158690     0.14100
C1226       C  0.39531785  0.14547031  0.87588949     0.01100
C1227       C  0.39089444  0.14030898  0.83291170     0.16100
C1228       C  0.40384464  0.13375743  0.80458336     0.25500
C1229       C  0.42143718  0.13227921  0.81895318    -0.40900
C1230       C  0.42537791  0.13565404  0.86340435     0.32500
C1231       C  0.38353875  0.15721527  0.90127608     0.01100
F1232       F  0.37433577  0.14292487  0.81735168    -0.13200
F1233       F  0.44204924  0.13371858  0.87888045    -0.13700
C1234       C  0.37910737  0.17373894  0.88371408     0.16100
C1235       C  0.37220101  0.18688529  0.91072856     0.25500
C1236       C  0.36983389  0.18384952  0.95601878    -0.40800
C1237       C  0.37248483  0.16669966  0.97251463     0.32400
C1238       C  0.37931229  0.15349631  0.94525952     0.14100
F1239       F  0.38308126  0.17776981  0.84134721    -0.13200
F1240       F  0.37005314  0.16307187  0.01581037    -0.13700
F1241       F  0.36899284  0.20298003  0.89305946    -0.16000
F1242       F  0.38298460  0.13744267  0.96256325    -0.14500
F1243       F  0.41713889  0.14712305  0.93295644    -0.14500
F1244       F  0.39947887  0.13059127  0.76198413    -0.15900
C1245       C  0.46932362  0.03135523  0.71761481     0.14100
C1246       C  0.45620426  0.02553584  0.74664421     0.01100
C1247       C  0.44317339  0.03735695  0.76091989     0.16100
C1248       C  0.44408845  0.05515454  0.74898664     0.25500
C1249       C  0.45814161  0.06126414  0.72291026    -0.40900
C1250       C  0.47031944  0.04903615  0.70588233     0.32500
C1251       C  0.45771376  0.00781378  0.76606895     0.01100
F1252       F  0.43031175  0.03191769  0.78878981    -0.13200
F1253       F  0.48357312  0.05428566  0.67886671    -0.13700
C1254       C  0.47264338  0.00379218  0.79129781     0.16100
C1255       C  0.47521605  0.98683145  0.80731431     0.25500
C1256       C  0.46285412  0.97343839  0.79845908    -0.40800
C1257       C  0.44749802  0.97766936  0.77452223     0.32400
C1258       C  0.44497059  0.99477409  0.75842797     0.14100
F1259       F  0.48491220  0.01635244  0.80000327    -0.13200
F1260       F  0.43534889  0.96511962  0.76488316    -0.13700
F1261       F  0.48994117  0.98354579  0.83131528    -0.16000
F1262       F  0.43049072  0.99842173  0.73387530    -0.14500
F1263       F  0.48170840  0.01999352  0.70228443    -0.14500
F1264       F  0.43201423  0.06656037  0.76550325    -0.15900
C1265       C  0.59280331  0.80839548  0.45761163     0.14100
C1266       C  0.59978449  0.81844470  0.42306724     0.01100
C1267       C  0.61526799  0.81288621  0.40213026     0.16100
C1268       C  0.62384017  0.79760001  0.41589793     0.25500
C1269       C  0.61712987  0.78759452  0.45129378    -0.40900
C1270       C  0.60138334  0.79311952  0.47171390     0.32500
C1271       C  0.59075118  0.83457363  0.40817365     0.01100
F1272       F  0.62197689  0.82218192  0.36786430    -0.13200
F1273       F  0.59449743  0.78407568  0.50615161    -0.13700
C1274       C  0.59901270  0.85103858  0.41194854     0.16100
C1275       C  0.59079049  0.86619428  0.39583626     0.25500
C1276       C  0.57414007  0.86510347  0.37530215    -0.40800
C1277       C  0.56577109  0.84851704  0.37262790     0.32400
C1278       C  0.57403087  0.83344640  0.38886784     0.14100
F1279       F  0.61516773  0.85238730  0.43085981    -0.13200
F1280       F  0.54967363  0.84673204  0.35364930    -0.13700
F1281       F  0.59948853  0.88177236  0.39891576    -0.16000
F1282       F  0.56596271  0.81758742  0.38430458    -0.14500
F1283       F  0.57785771  0.81363683  0.47836122    -0.14500
F1284       F  0.63866452  0.79259207  0.39421875    -0.15900
C1285       C  0.62786805  0.85962861  0.14668883     0.14100
C1286       C  0.62667003  0.87712762  0.13212900     0.01100
C1287       C  0.63319572  0.88162213  0.09041206     0.16100
C1288       C  0.64006161  0.86856598  0.06272135     0.25500
C1289       C  0.64014688  0.85085159  0.07630854    -0.40900
C1290       C  0.63454315  0.84660878  0.11904175     0.32500
C1291       C  0.61638161  0.88976961  0.15853557     0.01100
F1292       F  0.63205692  0.89845354  0.07573845    -0.13200
F1293       F  0.63468125  0.82965767  0.13322156    -0.13700
C1294       C  0.62149410  0.89364423  0.20186790     0.16100
C1295       C  0.60944325  0.90109649  0.23124439     0.25500
C1296       C  0.59208503  0.90454476  0.21759988    -0.40800
C1297       C  0.58755526  0.90227704  0.17310781     0.32400
C1298       C  0.59965775  0.89498538  0.14369118     0.14100
F1299       F  0.63764028  0.88874941  0.21665676    -0.13200
F1300       F  0.57098480  0.90592173  0.15892975    -0.13700
F1301       F  0.61413957  0.90302649  0.27407909    -0.16000
F1302       F  0.59441279  0.89132422  0.10195517    -0.14500
F1303       F  0.62124448  0.85489508  0.18646133    -0.14500
F1304       F  0.64518167  0.87300779  0.02140274    -0.15900
C1305       C  0.49925613  0.94338226  0.12784442     0.14100
C1306       C  0.49693093  0.92938664  0.09822384     0.01100
C1307       C  0.50134695  0.91223484  0.11108034     0.16100
C1308       C  0.50822061  0.90905874  0.15273741     0.25500
C1309       C  0.51083671  0.92303235  0.18259452    -0.40900
C1310       C  0.50606918  0.94023341  0.16991256     0.32500
C1311       C  0.49091080  0.93240184  0.05280259     0.01100
F1312       F  0.49947277  0.89855416  0.08262698    -0.13200
F1313       F  0.50845557  0.95405903  0.19761647    -0.13700
C1314       C  0.50178850  0.94142272  0.02308687     0.16100
C1315       C  0.49812000  0.94095374  0.97806573     0.25500
C1316       C  0.48345008  0.93151647  0.96226338    -0.40800
C1317       C  0.47185895  0.92361338  0.99254681     0.32400
C1318       C  0.47562189  0.92400960  0.03745448     0.14100
F1319       F  0.51658732  0.94969493  0.03738102    -0.13200
F1320       F  0.45753442  0.91445858  0.97857772    -0.13700
F1321       F  0.50914643  0.94936023  0.94987167    -0.16000
F1322       F  0.46483463  0.91540437  0.06586048    -0.14500
F1323       F  0.49500402  0.96006196  0.11590862    -0.14500
F1324       F  0.51224429  0.89221239  0.16375931    -0.15900
C1325       C  0.52068039  0.94377404  0.52478700     0.14100
C1326       C  0.52933340  0.93216120  0.55333433     0.01100
C1327       C  0.54316115  0.92170731  0.53746646     0.16100
C1328       C  0.54766417  0.92208793  0.49293955     0.25500
C1329       C  0.53819580  0.93281158  0.46344074    -0.40900
C1330       C  0.52502902  0.94407735  0.48007543     0.32500
C1331       C  0.52224363  0.92891985  0.59767482     0.01100
F1332       F  0.55166902  0.91042925  0.56479560    -0.13200
F1333       F  0.51603921  0.95503173  0.45289155    -0.13700
C1334       C  0.51211235  0.91378995  0.60488892     0.16100
C1335       C  0.50518578  0.91026516  0.64641200     0.25500
C1336       C  0.50835263  0.92183360  0.68195329    -0.40800
C1337       C  0.51854312  0.93712882  0.67436366     0.32400
C1338       C  0.52537439  0.94063329  0.63244684     0.14100
F1339       F  0.50876635  0.90246492  0.57128977    -0.13200
F1340       F  0.52210693  0.94862353  0.70743031    -0.13700
F1341       F  0.49518551  0.89557422  0.65137576    -0.16000
F1342       F  0.53521502  0.95532727  0.62587991    -0.14500
F1343       F  0.50733136  0.95404808  0.53977515    -0.14500
F1344       F  0.56042894  0.91101452  0.47830148    -0.15900
C1345       C  0.42250860  0.17777513  0.14883238     0.14100
C1346       C  0.43952950  0.18372566  0.13881891     0.01100
C1347       C  0.44174991  0.19894777  0.11344209     0.16100
C1348       C  0.42709013  0.20797745  0.09740886     0.25500
C1349       C  0.40992271  0.20194200  0.10677554    -0.40900
C1350       C  0.40778683  0.18685127  0.13316292     0.32500
C1351       C  0.45503053  0.17402251  0.15474478     0.01100
F1352       F  0.45816312  0.20480840  0.10334543    -0.13200
F1353       F  0.39149810  0.18044234  0.14236477    -0.13700
C1354       C  0.45920030  0.15749397  0.13706142     0.16100
C1355       C  0.47394264  0.14829741  0.15212251     0.25500
C1356       C  0.48471611  0.15548336  0.18549803    -0.40800
C1357       C  0.48044008  0.17219250  0.20287392     0.32400
C1358       C  0.46575526  0.18135854  0.18746460     0.14100
F1359       F  0.44910554  0.15039061  0.10469631    -0.13200
F1360       F  0.49020774  0.17958891  0.23544168    -0.13700
F1361       F  0.47775259  0.13249272  0.13348366    -0.16000
F1362       F  0.46178974  0.19731877  0.20502339    -0.14500
F1363       F  0.42018672  0.16309914  0.17361608    -0.14500
F1364       F  0.42972742  0.22260318  0.07262072    -0.15900
C1365       C  0.51817715  0.09475957  0.90406038     0.14100
C1366       C  0.51240459  0.10488088  0.93991163     0.01100
C1367       C  0.50038756  0.11859417  0.93295004     0.16100
C1368       C  0.49437423  0.12239749  0.89077120     0.25500
C1369       C  0.50027914  0.11254187  0.85427855    -0.40900
C1370       C  0.51209710  0.09847911  0.86149834     0.32500
C1371       C  0.51903504  0.10181015  0.98487310     0.01100
F1372       F  0.49468891  0.12858839  0.96719663    -0.13200
F1373       F  0.51802724  0.08852603  0.82746237    -0.13700
C1374       C  0.53648784  0.10605226  0.99576860     0.16100
C1375       C  0.54169750  0.10700620  0.03989738     0.25500
C1376       C  0.52945242  0.10371903  0.07388981    -0.40800
C1377       C  0.51228873  0.09812382  0.06229534     0.32400
C1378       C  0.50718715  0.09724562  0.01828927     0.14100
F1379       F  0.54816085  0.11044397  0.96377058    -0.13200
F1380       F  0.50000993  0.09434966  0.09338178    -0.13700
F1381       F  0.55850106  0.11190022  0.04913336    -0.16000
F1382       F  0.49031402  0.09281589  0.00829266    -0.14500
F1383       F  0.52959783  0.08124888  0.91036937    -0.14500
F1384       F  0.48259032  0.13569925  0.88596814    -0.15900
C1385       C  0.48475713  0.10533610  0.40183148     0.14100
C1386       C  0.49249595  0.11319276  0.43873665     0.01100
C1387       C  0.50718634  0.12414704  0.43378332     0.16100
C1388       C  0.51419392  0.12728138  0.39220695     0.25500
C1389       C  0.50659402  0.11941686  0.35467971    -0.40900
C1390       C  0.49175455  0.10837859  0.35998379     0.32500
C1391       C  0.48548732  0.11017756  0.48297755     0.01100
F1392       F  0.51474689  0.13182043  0.46948912    -0.13200
F1393       F  0.48380001  0.10076231  0.32475987    -0.13700
C1394       C  0.49327345  0.09742095  0.50996691     0.16100
C1395       C  0.48921007  0.09684728  0.55470407     0.25500
C1396       C  0.47717396  0.10892581  0.57262201    -0.40800
C1397       C  0.46861347  0.12101797  0.54495998     0.32400
C1398       C  0.47286629  0.12171637  0.50033841     0.14100
F1399       F  0.50539420  0.08609791  0.49327425    -0.13200
F1400       F  0.45711638  0.13296513  0.56173424    -0.13700
F1401       F  0.49723957  0.08474523  0.58069729    -0.16000
F1402       F  0.46546862  0.13428950  0.47457200    -0.14500
F1403       F  0.47043994  0.09477249  0.40639489    -0.14500
F1404       F  0.52856643  0.13784467  0.38898555    -0.15900
C1405       C  0.56682999  0.03756505  0.22645664     0.14100
C1406       C  0.55963078  0.03062497  0.26531694     0.01100
C1407       C  0.54998454  0.04163881  0.29353045     0.16100
C1408       C  0.54691479  0.05916371  0.28212712     0.25500
C1409       C  0.55356585  0.06598664  0.24244737    -0.40900
C1410       C  0.56393980  0.05518277  0.21523262     0.32500
C1411       C  0.56033216  0.01153860  0.27411917     0.01100
F1412       F  0.54267602  0.03513688  0.33091308    -0.13200
F1413       F  0.57030656  0.06134292  0.17645823    -0.13700
C1414       C  0.56841568  0.00500514  0.31236660     0.16100
C1415       C  0.56702699  0.98712663  0.32307467     0.25500
C1416       C  0.55726058  0.97572455  0.29600632    -0.40800
C1417       C  0.54978905  0.98217489  0.25694339     0.32400
C1418       C  0.55135842  0.99992219  0.24600967     0.14100
F1419       F  0.57714164  0.01605830  0.33992989    -0.13200
F1420       F  0.54061099  0.97130567  0.22982341    -0.13700
F1421       F  0.57423084  0.98120119  0.36114711    -0.16000
F1422       F  0.54324842  0.00597573  0.20919879    -0.14500
F1423       F  0.57611833  0.02708178  0.19867818    -0.14500
F1424       F  0.53712802  0.06939197  0.30947114    -0.15900
C1425       C  0.92088413  0.72740658  0.07974776     0.14100
C1426       C  0.91571166  0.71854186  0.11811897     0.01100
C1427       C  0.90173141  0.72527175  0.14327131     0.16100
C1428       C  0.89269026  0.74033816  0.12965984     0.25500
C1429       C  0.89747981  0.74903045  0.09050253    -0.40900
C1430       C  0.91187249  0.74251354  0.06600513     0.32500
C1431       C  0.92461775  0.70209475  0.13179656     0.01100
F1432       F  0.89691619  0.71727733  0.18134725    -0.13200
F1433       F  0.91687365  0.75035742  0.02788669    -0.13700
C1434       C  0.94248012  0.70221064  0.14378679     0.16100
C1435       C  0.95043503  0.68693488  0.16009727     0.25500
C1436       C  0.94068052  0.67122039  0.16430594    -0.40800
C1437       C  0.92298834  0.67098065  0.15049657     0.32400
C1438       C  0.91502392  0.68630902  0.13459964     0.14100
F1439       F  0.95202269  0.71730581  0.14138609    -0.13200
F1440       F  0.91309192  0.65618426  0.15469609    -0.13700
F1441       F  0.96763291  0.68757555  0.17233813    -0.16000
F1442       F  0.89779542  0.68584809  0.12263731    -0.14500
F1443       F  0.93432987  0.72110450  0.05484196    -0.14500
F1444       F  0.87936247  0.74650720  0.15517420    -0.15900
C1445       C  0.88738888  0.67733607  0.39297685     0.14100
C1446       C  0.88712922  0.65982946  0.40756153     0.01100
C1447       C  0.87936626  0.65574624  0.44809737     0.16100
C1448       C  0.87292185  0.66922615  0.47512110     0.25500
C1449       C  0.87450179  0.68700327  0.46209402    -0.40900
C1450       C  0.88113665  0.69080545  0.41987960     0.32500
C1451       C  0.89760155  0.64677191  0.38315287     0.01100
F1452       F  0.87893924  0.63884013  0.46247811    -0.13200
F1453       F  0.88255615  0.70766617  0.40548902    -0.13700
C1454       C  0.91443510  0.64242787  0.39884949     0.16100
C1455       C  0.92709551  0.63566673  0.37013339     0.25500
C1456       C  0.92298860  0.63303162  0.32550270    -0.40800
C1457       C  0.90545443  0.63527894  0.31134516     0.32400
C1458       C  0.89287496  0.64225549  0.34001125     0.14100
F1459       F  0.91917552  0.64653217  0.44070510    -0.13200
F1460       F  0.90092577  0.63259793  0.26864472    -0.13700
F1461       F  0.94366905  0.63281860  0.38525764    -0.16000
F1462       F  0.87656519  0.64619082  0.32456579    -0.14500
F1463       F  0.89511218  0.68154843  0.35406907    -0.14500
F1464       F  0.86649256  0.66493203  0.51537505    -0.15900
C1465       C  0.96379448  0.52963649  0.23171951     0.14100
C1466       C  0.95230607  0.52537253  0.26628279     0.01100
C1467       C  0.94295568  0.53884401  0.28772529     0.16100
C1468       C  0.94527535  0.55642489  0.27510492     0.25500
C1469       C  0.95725621  0.56071863  0.24151879    -0.40900
C1470       C  0.96633988  0.54717034  0.21962401     0.32500
C1471       C  0.95133413  0.50700721  0.28192925     0.01100
F1472       F  0.93188590  0.53496656  0.32142392    -0.13200
F1473       F  0.97780376  0.55095403  0.18665460    -0.13700
C1474       C  0.95871250  0.50255931  0.32278306     0.16100
C1475       C  0.96024786  0.48491970  0.33509865     0.25500
C1476       C  0.95413909  0.47152606  0.30709977    -0.40800
C1477       C  0.94599791  0.47597109  0.26717444     0.32400
C1478       C  0.94475200  0.49363343  0.25444879     0.14100
F1479       F  0.96535120  0.51525470  0.34956720    -0.13200
F1480       F  0.94032848  0.46317405  0.23933459    -0.13700
F1481       F  0.96813610  0.48084197  0.37386418    -0.16000
F1482       F  0.93770433  0.49768286  0.21468819    -0.14500
F1483       F  0.97313016  0.51684386  0.21094520    -0.14500
F1484       F  0.93655836  0.56929742  0.29718363    -0.15900
C1485       C  0.06826347  0.33388419  0.39086804     0.14100
C1486       C  0.06742629  0.35234292  0.38908738     0.01100
C1487       C  0.08194181  0.36232379  0.40341569     0.16100
C1488       C  0.09696383  0.35398099  0.41991067     0.25500
C1489       C  0.09762566  0.33551443  0.42278719    -0.40900
C1490       C  0.08319637  0.32553464  0.40780628     0.32500
C1491       C  0.05129319  0.36121894  0.37319046     0.01100
F1492       F  0.08125047  0.38018705  0.40323007    -0.13200
F1493       F  0.08354939  0.30767773  0.40968802    -0.13700
C1494       C  0.03504568  0.35838848  0.39433189     0.16100
C1495       C  0.01987196  0.36705030  0.37976170     0.25500
C1496       C  0.02081595  0.37886635  0.34437043    -0.40800
C1497       C  0.03702819  0.38170189  0.32325501     0.32400
C1498       C  0.05212807  0.37283310  0.33732305     0.14100
F1499       F  0.03400692  0.34767194  0.42995096    -0.13200
F1500       F  0.03814807  0.39284684  0.28847938    -0.13700
F1501       F  0.00441727  0.36448141  0.40132957    -0.16000
F1502       F  0.06755557  0.37544132  0.31567939    -0.14500
F1503       F  0.05457827  0.32395132  0.37625743    -0.14500
F1504       F  0.11041406  0.36399373  0.43553922    -0.15900
C1505       C  0.96623871  0.68282691  0.71242948     0.14100
C1506       C  0.95518684  0.67634032  0.67916273     0.01100
C1507       C  0.95918741  0.66029017  0.65862632     0.16100
C1508       C  0.97407592  0.65078893  0.67113676     0.25500
C1509       C  0.98525032  0.65720939  0.70449201    -0.40900
C1510       C  0.98117979  0.67333963  0.72507229     0.32500
C1511       C  0.93984886  0.68656822  0.66421496     0.01100
F1512       F  0.94886045  0.65403377  0.62563125    -0.13200
F1513       F  0.99136482  0.67970197  0.75820245    -0.13700
C1514       C  0.94238099  0.70255641  0.64218093     0.16100
C1515       C  0.92810722  0.71126418  0.62315603     0.25500
C1516       C  0.91098725  0.70407275  0.62585726    -0.40800
C1517       C  0.90843386  0.68843375  0.65003128     0.32400
C1518       C  0.92278208  0.67974300  0.66884023     0.14100
F1519       F  0.95883660  0.70930162  0.63727922    -0.13200
F1520       F  0.89221352  0.68104390  0.65383243    -0.13700
F1521       F  0.93117315  0.72655113  0.60134304    -0.16000
F1522       F  0.92009869  0.66439132  0.69067901    -0.14500
F1523       F  0.96239419  0.69822856  0.73301154    -0.14500
F1524       F  0.97777377  0.63550795  0.64981382    -0.15900
C1525       C  0.03779411  0.61307563  0.50565045     0.14100
C1526       C  0.02191765  0.60547085  0.49156506     0.01100
C1527       C  0.01071451  0.59750085  0.52232278     0.16100
C1528       C  0.01477596  0.59801331  0.56700090     0.25500
C1529       C  0.03017673  0.60653765  0.58171722    -0.40900
C1530       C  0.04194637  0.61358863  0.55047098     0.32500
C1531       C  0.01563830  0.60816033  0.44627072     0.01100
F1532       F  0.99540296  0.58989635  0.50910200    -0.13200
F1533       F  0.05686649  0.62201279  0.56337120    -0.13700
C1534       C  0.02370871  0.59985199  0.41026940     0.16100
C1535       C  0.01718555  0.60252272  0.36764265     0.25500
C1536       C  0.00267250  0.61375265  0.36068627    -0.40800
C1537       C  0.99480896  0.62211956  0.39710182     0.32400
C1538       C  0.00120983  0.61930400  0.43935488     0.14100
F1539       F  0.03776384  0.58909894  0.41650534    -0.13200
F1540       F  0.98070666  0.63290595  0.39202791    -0.13700
F1541       F  0.02531107  0.59451630  0.33323748    -0.16000
F1542       F  0.99339794  0.62764379  0.47376463    -0.14500
F1543       F  0.04866567  0.62104847  0.47632546    -0.14500
F1544       F  0.00339016  0.59051677  0.59591301    -0.15900
C1545       C  0.99611716  0.59740663  0.01831282     0.14100
C1546       C  0.98372868  0.60460229  0.98929026     0.01100
C1547       C  0.96742404  0.61039795  0.00537080     0.16100
C1548       C  0.96392719  0.60995688  0.05047195     0.25500
C1549       C  0.97685248  0.60386808  0.08019970    -0.40900
C1550       C  0.99273594  0.59700947  0.06337138     0.32500
C1551       C  0.98891274  0.60812619  0.94353181     0.01100
F1552       F  0.95519039  0.61714482  0.97750677    -0.13200
F1553       F  0.00528249  0.59039222  0.09053942    -0.13700
C1554       C  0.99289715  0.59425941  0.91475049     0.16100
C1555       C  0.00023969  0.59775025  0.87350959     0.25500
C1556       C  0.00386949  0.61522520  0.86070134    -0.40800
C1557       C  0.99919370  0.62910936  0.88926621     0.32400
C1558       C  0.99177314  0.62555393  0.93024081     0.14100
F1559       F  0.99001858  0.57732823  0.92707627    -0.13200
F1560       F  0.00186974  0.64617905  0.87782096    -0.13700
F1561       F  0.00436607  0.58398008  0.84692978    -0.16000
F1562       F  0.98809357  0.63913325  0.95787257    -0.14500
F1563       F  0.01199216  0.59178997  0.00323904    -0.14500
F1564       F  0.94829951  0.61643139  0.06500738    -0.15900
C1565       C  0.03407890  0.41955536  0.04176986     0.14100
C1566       C  0.01781144  0.42674952  0.05418371     0.01100
C1567       C  0.00754227  0.43564222  0.02307572     0.16100
C1568       C  0.01311651  0.43673055  0.97944132     0.25500
C1569       C  0.02901847  0.42873211  0.96613465    -0.40900
C1570       C  0.03968843  0.42053556  0.99803187     0.32500
C1571       C  0.01093363  0.42391515  0.09882358     0.01100
F1572       F  0.99188550  0.44289478  0.03485305    -0.13200
F1573       F  0.05499252  0.41251234  0.98652378    -0.13700
C1574       C  0.01793046  0.43320761  0.13463647     0.16100
C1575       C  0.01129484  0.43042736  0.17695981     0.25500
C1576       C  0.99770076  0.41810858  0.18400299    -0.40800
C1577       C  0.99080485  0.40875794  0.14782383     0.32400
C1578       C  0.99731052  0.41174346  0.10556370     0.14100
F1579       F  0.03113353  0.44501189  0.12847954    -0.13200
F1580       F  0.97758095  0.39690469  0.15317382    -0.13700
F1581       F  0.01849284  0.43943091  0.21113421    -0.16000
F1582       F  0.99044836  0.40261340  0.07113820    -0.14500
F1583       F  0.04406697  0.41077614  0.07158502    -0.14500
F1584       F  0.00275972  0.44532846  0.95006006    -0.15900
C1585       C  0.99908548  0.43654105  0.52262137     0.14100
C1586       C  0.98855089  0.42794032  0.55381605     0.01100
C1587       C  0.97242422  0.42051795  0.54081513     0.16100
C1588       C  0.96726714  0.42091838  0.49672267     0.25500
C1589       C  0.97827303  0.42866047  0.46488155    -0.40900
C1590       C  0.99400774  0.43690161  0.47847968     0.32500
C1591       C  0.99516580  0.42517289  0.59887582     0.01100
F1592       F  0.96198315  0.41230485  0.57070242    -0.13200
F1593       F  0.00471644  0.44494124  0.44887614    -0.13700
C1594       C  0.99844305  0.43945827  0.62701037     0.16100
C1595       C  0.00511130  0.43660529  0.66932058     0.25500
C1596       C  0.00873232  0.41936089  0.68397191    -0.40800
C1597       C  0.00536445  0.40510019  0.65538990     0.32400
C1598       C  0.99869636  0.40801743  0.61332483     0.14100
F1599       F  0.99510729  0.45615660  0.61351376    -0.13200
F1600       F  0.00834097  0.38822983  0.66810169    -0.13700
F1601       F  0.00830536  0.45075071  0.69549175    -0.16000
F1602       F  0.99599791  0.39404650  0.58620513    -0.14500
F1603       F  0.01477036  0.44372446  0.53450458    -0.14500
F1604       F  0.95207379  0.41273684  0.48490199    -0.15900
C1605       C  0.06836443  0.49721035  0.77168410     0.14100
C1606       C  0.05480988  0.50935153  0.78003961     0.01100
C1607       C  0.03996503  0.50399220  0.80393366     0.16100
C1608       C  0.03825857  0.48661617  0.81780898     0.25500
C1609       C  0.05139186  0.47409805  0.80797965    -0.40900
C1610       C  0.06669126  0.47965448  0.78561881     0.32500
C1611       C  0.05521586  0.52740361  0.76203891     0.01100
F1612       F  0.02687655  0.51562087  0.81311303    -0.13200
F1613       F  0.07955065  0.46795696  0.77521424    -0.13700
C1614       C  0.04254236  0.53231384  0.73076842     0.16100
C1615       C  0.04044117  0.54993779  0.71919458     0.25500
C1616       C  0.05107120  0.56300862  0.73847684    -0.40800
C1617       C  0.06451501  0.55798870  0.76780567     0.32400
C1618       C  0.06651569  0.54025625  0.77967149     0.14100
F1619       F  0.03171941  0.52003703  0.71267783    -0.13200
F1620       F  0.07490666  0.57032889  0.78712943    -0.13700
F1621       F  0.02777834  0.55427850  0.68956381    -0.16000
F1622       F  0.07872733  0.53577618  0.81028566    -0.14500
F1623       F  0.08278778  0.50216429  0.74837515    -0.14500
F1624       F  0.02356828  0.48202048  0.84058754    -0.15900
C1625       C  0.11460426  0.31382398  0.91994294     0.14100
C1626       C  0.09746183  0.31727487  0.93490555     0.01100
C1627       C  0.08932845  0.30528340  0.96361181     0.16100
C1628       C  0.09829407  0.29015925  0.97761627     0.25500
C1629       C  0.11560093  0.28672984  0.96302589    -0.40900
C1630       C  0.12358438  0.29873723  0.93375026     0.32500
C1631       C  0.08793810  0.33311524  0.91924354     0.01100
F1632       F  0.07276438  0.30837815  0.97858580    -0.13200
F1633       F  0.13997102  0.29570511  0.91749766    -0.13700
C1634       C  0.07296933  0.33128285  0.89262030     0.16100
C1635       C  0.06464177  0.34611305  0.87508142     0.25500
C1636       C  0.07112831  0.36322548  0.88377776    -0.40800
C1637       C  0.08586594  0.36500622  0.91175245     0.32400
C1638       C  0.09420566  0.35007855  0.92910586     0.14100
F1639       F  0.06678646  0.31502563  0.88218148    -0.13200
F1640       F  0.09265850  0.38111641  0.92113034    -0.13700
F1641       F  0.05033207  0.34359589  0.84900201    -0.16000
F1642       F  0.10856562  0.35215852  0.95523669    -0.14500
F1643       F  0.12250799  0.32489497  0.89097751    -0.14500
F1644       F  0.09014816  0.27910883  0.00619297    -0.15900
C1645       C  0.09817957  0.39663011  0.65116907     0.14100
C1646       C  0.11484152  0.39136359  0.66648580     0.01100
C1647       C  0.11935192  0.39451407  0.71064782     0.16100
C1648       C  0.10669447  0.40081606  0.74018482     0.25500
C1649       C  0.08936342  0.40400664  0.72579831    -0.40900
C1650       C  0.08553444  0.40289695  0.68062690     0.32500
C1651       C  0.12546842  0.37914501  0.63933948     0.01100
F1652       F  0.13552878  0.38996385  0.72591656    -0.13200
F1653       F  0.06913373  0.40667374  0.66547713    -0.13700
C1654       C  0.13061415  0.38359725  0.59633080     0.16100
C1655       C  0.13644180  0.37049917  0.56725819     0.25500
C1656       C  0.13701701  0.35280680  0.58087607    -0.40800
C1657       C  0.13335979  0.34868482  0.62492255     0.32400
C1658       C  0.12764957  0.36171534  0.65391081     0.14100
F1659       F  0.12888505  0.40038942  0.58172054    -0.13200
F1660       F  0.13433146  0.33179783  0.63924308    -0.13700
F1661       F  0.13991242  0.37485572  0.52483143    -0.16000
F1662       F  0.12263460  0.35693498  0.69508352    -0.14500
F1663       F  0.09347106  0.39390833  0.60860303    -0.14500
F1664       F  0.11088220  0.40192045  0.78352481    -0.15900
C1665       C  0.13273607  0.87822991  0.45522152     0.14100
C1666       C  0.12927144  0.87414558  0.41097339     0.01100
C1667       C  0.13416271  0.85757787  0.39441382     0.16100
C1668       C  0.14091542  0.84474535  0.42254789     0.25500
C1669       C  0.14289522  0.84827625  0.46771341    -0.40900
C1670       C  0.13957088  0.86540271  0.48344003     0.32500
C1671       C  0.11748403  0.88541629  0.38451002     0.01100
F1672       F  0.13074301  0.85320988  0.35192665    -0.13200
F1673       F  0.14116568  0.86922085  0.52691026    -0.13700
C1674       C  0.12255108  0.89143948  0.34268334     0.16100
C1675       C  0.10996420  0.89841974  0.31385734     0.25500
C1676       C  0.09214100  0.89923612  0.32648547    -0.40800
C1677       C  0.08741756  0.89441169  0.36953654     0.32400
C1678       C  0.09996107  0.88760189  0.39827975     0.14100
F1679       F  0.13944827  0.88952388  0.32885820    -0.13200
F1680       F  0.07038529  0.89524826  0.38294576    -0.13700
F1681       F  0.11492037  0.90280928  0.27238661    -0.16000
F1682       F  0.09461722  0.88162053  0.43819972    -0.14500
F1683       F  0.12818065  0.89419862  0.47180415    -0.14500
F1684       F  0.14438660  0.82846561  0.40617945    -0.15900
C1685       C  0.07336969  0.83166908  0.63967772     0.14100
C1686       C  0.07556928  0.84784564  0.66142844     0.01100
C1687       C  0.09267414  0.85429731  0.66869695     0.16100
C1688       C  0.10729793  0.84533387  0.65194084     0.25500
C1689       C  0.10505486  0.82970132  0.62751084    -0.40900
C1690       C  0.08796026  0.82264042  0.62302523     0.32500
C1691       C  0.06003337  0.85845393  0.67434228     0.01100
F1692       F  0.09517831  0.86954057  0.69124136    -0.13200
F1693       F  0.08527615  0.80715086  0.60167661    -0.13700
C1694       C  0.04719878  0.85150153  0.70257275     0.16100
C1695       C  0.03247004  0.86150102  0.71427008     0.25500
C1696       C  0.03030406  0.87885093  0.69823090    -0.40800
C1697       C  0.04316274  0.88564487  0.66932057     0.32400
C1698       C  0.05781725  0.87552715  0.65752310     0.14100
F1699       F  0.04908291  0.83508208  0.71954601    -0.13200
F1700       F  0.04166998  0.90208913  0.65230358    -0.13700
F1701       F  0.02043943  0.85409688  0.74165010    -0.16000
F1702       F  0.06977648  0.88233315  0.62899188    -0.14500
F1703       F  0.05700438  0.82500623  0.63265507    -0.14500
F1704       F  0.12352806  0.85249289  0.65776684    -0.15900
C1705       C  0.07278145  0.70563918  0.66262609     0.14100
C1706       C  0.08544811  0.70311649  0.62959074     0.01100
C1707       C  0.08858888  0.68604380  0.61374661     0.16100
C1708       C  0.07998048  0.67157384  0.63230782     0.25500
C1709       C  0.06796471  0.67387170  0.66733236    -0.40900
C1710       C  0.06409121  0.69121000  0.68129187     0.32500
C1711       C  0.09638655  0.71803968  0.61411116     0.01100
F1712       F  0.10033190  0.68334905  0.58072108    -0.13200
F1713       F  0.05224316  0.69430086  0.71385853    -0.13700
C1714       C  0.11472135  0.71758095  0.62001981     0.16100
C1715       C  0.12525031  0.73167498  0.60658760     0.25500
C1716       C  0.11765549  0.74668234  0.58689520    -0.40800
C1717       C  0.09916367  0.74706264  0.58106614     0.32400
C1718       C  0.08868568  0.73288028  0.59455453     0.14100
F1719       F  0.12244056  0.70355196  0.63982869    -0.13200
F1720       F  0.09110404  0.76108275  0.56209115    -0.13700
F1721       F  0.14288898  0.73058489  0.61344577    -0.16000
F1722       F  0.07100375  0.73354392  0.58796727    -0.14500
F1723       F  0.06942862  0.72203943  0.67836042    -0.14500
F1724       F  0.08392671  0.65529215  0.61670701    -0.15900
C1725       C  0.41813509  0.89357806  0.64598567     0.14100
C1726       C  0.40100202  0.89041586  0.66166054     0.01100
C1727       C  0.39673788  0.89510181  0.70505450     0.16100
C1728       C  0.40984912  0.90117295  0.73364590     0.25500
C1729       C  0.42745838  0.90255319  0.71913681    -0.40900
C1730       C  0.43123345  0.89963673  0.67440766     0.32500
C1731       C  0.38910205  0.87909312  0.63548289     0.01100
F1732       F  0.38015095  0.89258355  0.72056244    -0.13200
F1733       F  0.44785936  0.90162390  0.65865740    -0.13700
C1734       C  0.38503395  0.86218428  0.65120365     0.16100
C1735       C  0.37863905  0.84931210  0.62258585     0.25500
C1736       C  0.37627143  0.85310282  0.57765744    -0.40800
C1737       C  0.37842962  0.87059128  0.56312526     0.32400
C1738       C  0.38483129  0.88348543  0.59191949     0.14100
F1739       F  0.38894749  0.85757343  0.69323299    -0.13200
F1740       F  0.37599727  0.87487891  0.52021619    -0.13700
F1741       F  0.37589150  0.83280889  0.63830833    -0.16000
F1742       F  0.38817571  0.89991013  0.57644320    -0.14500
F1743       F  0.42264887  0.88917258  0.60417121    -0.14500
F1744       F  0.40554436  0.90417073  0.77635967    -0.15900
C1745       C  0.44642625  0.84325203  0.42096341     0.14100
C1746       C  0.44427222  0.85397368  0.38389533     0.01100
C1747       C  0.42758347  0.85523985  0.36419643     0.16100
C1748       C  0.41315047  0.84614664  0.38191141     0.25500
C1749       C  0.41515482  0.83565709  0.41995103    -0.40900
C1750       C  0.43212883  0.83417797  0.43877061     0.32500
C1751       C  0.45946488  0.86422131  0.36721870     0.01100
F1752       F  0.42526486  0.86532698  0.32781907    -0.13200
F1753       F  0.43498610  0.82432937  0.47531203    -0.13700
C1754       C  0.47480788  0.85555668  0.35326900     0.16100
C1755       C  0.48979999  0.86515657  0.34147191     0.25500
C1756       C  0.48976459  0.88373574  0.34332175    -0.40800
C1757       C  0.47416976  0.89236674  0.35671173     0.32400
C1758       C  0.45920629  0.88268459  0.36847425     0.14100
F1759       F  0.47527749  0.83770303  0.35126254    -0.13200
F1760       F  0.47326566  0.91020741  0.35830768    -0.13700
F1761       F  0.50440465  0.85615014  0.32888416    -0.16000
F1762       F  0.44458554  0.89135555  0.38236731    -0.14500
F1763       F  0.46236408  0.84207518  0.44105381    -0.14500
F1764       F  0.39721860  0.84788528  0.36209174    -0.15900
C1765       C  0.27452215  0.81038797  0.46759895     0.14100
C1766       C  0.26847790  0.81786626  0.50705397     0.01100
C1767       C  0.28062526  0.82567790  0.53606326     0.16100
C1768       C  0.29872135  0.82513125  0.52674959     0.25500
C1769       C  0.30477139  0.81666409  0.48849459    -0.40900
C1770       C  0.29252665  0.80969132  0.45853629     0.32500
C1771       C  0.24990776  0.81531795  0.52023360     0.01100
F1772       F  0.27505157  0.83272951  0.57468807    -0.13200
F1773       F  0.29809890  0.80169457  0.42105231    -0.13700
C1774       C  0.24382817  0.79823914  0.52877468     0.16100
C1775       C  0.22634587  0.79530834  0.54081832     0.25500
C1776       C  0.21439376  0.80948919  0.54459571    -0.40800
C1777       C  0.22060848  0.82669600  0.53586690     0.32400
C1778       C  0.23823873  0.82954778  0.52395673     0.14100
F1779       F  0.25497584  0.78430563  0.52580436    -0.13200
F1780       F  0.20965626  0.84078649  0.53825948    -0.13700
F1781       F  0.22126284  0.77847439  0.54883907    -0.16000
F1782       F  0.24384056  0.84615195  0.51518774    -0.14500
F1783       F  0.26297744  0.80307303  0.43874633    -0.14500
F1784       F  0.31035798  0.83162722  0.55656429    -0.15900
C1785       C  0.08724716  0.79990318  0.09471074     0.14100
C1786       C  0.09534382  0.81362524  0.11823647     0.01100
C1787       C  0.11313020  0.81200396  0.13011691     0.16100
C1788       C  0.12283038  0.79715708  0.11801367     0.25500
C1789       C  0.11494110  0.78339631  0.09369386    -0.40900
C1790       C  0.09691289  0.78493993  0.08250161     0.32500
C1791       C  0.08542464  0.82960721  0.13146096     0.01100
F1792       F  0.12112076  0.82481249  0.15412318    -0.13200
F1793       F  0.08858475  0.77211841  0.05927813    -0.13700
C1794       C  0.07092096  0.82832144  0.15985762     0.16100
C1795       C  0.06325945  0.84350431  0.17763857     0.25500
C1796       C  0.07006442  0.86039532  0.16758265    -0.40800
C1797       C  0.08389132  0.86158408  0.13670686     0.32400
C1798       C  0.09144497  0.84635590  0.11890493     0.14100
F1799       F  0.06476987  0.81230135  0.17238778    -0.13200
F1800       F  0.09050722  0.87743893  0.12443631    -0.13700
F1801       F  0.04962166  0.84147796  0.20610237    -0.16000
F1802       F  0.10501624  0.84793898  0.09008164    -0.14500
F1803       F  0.07005819  0.80114948  0.08274154    -0.14500
F1804       F  0.14003317  0.79643665  0.13009096    -0.15900
C1805       C  0.13036118  0.65093771  0.95287140     0.14100
C1806       C  0.12480118  0.65563421  0.91040982     0.01100
C1807       C  0.12745563  0.67294465  0.89549121     0.16100
C1808       C  0.13409751  0.68573007  0.92381963     0.25500
C1809       C  0.13827117  0.68141202  0.96741952    -0.40900
C1810       C  0.13718559  0.66377157  0.98124767     0.32500
C1811       C  0.11329527  0.64395176  0.88435837     0.01100
F1812       F  0.12196595  0.67790016  0.85483050    -0.13200
F1813       F  0.14105281  0.65931086  0.02339499    -0.13700
C1814       C  0.09633769  0.64010631  0.90022553     0.16100
C1815       C  0.08312894  0.63470011  0.87124802     0.25500
C1816       C  0.08673839  0.63301515  0.82604024    -0.40800
C1817       C  0.10423927  0.63486641  0.81124833     0.32400
C1818       C  0.11741616  0.64030084  0.84030083     0.14100
F1819       F  0.09206632  0.64338413  0.94283988    -0.13200
F1820       F  0.10829493  0.63322249  0.76793567    -0.13700
F1821       F  0.06656447  0.63221904  0.88696743    -0.16000
F1822       F  0.13382988  0.64362779  0.82459637    -0.14500
F1823       F  0.12803597  0.63424940  0.96773030    -0.14500
F1824       F  0.13536114  0.70261925  0.90954197    -0.15900
C1825       C  0.07180888  0.69908835  0.15739180     0.14100
C1826       C  0.07128442  0.68060184  0.15870148     0.01100
C1827       C  0.08617485  0.67097954  0.14533531     0.16100
C1828       C  0.10119077  0.67967491  0.12997165     0.25500
C1829       C  0.10148551  0.69815675  0.12709478    -0.40900
C1830       C  0.08673463  0.70779494  0.14146751     0.32500
C1831       C  0.05511681  0.67131660  0.17308562     0.01100
F1832       F  0.08586838  0.65310501  0.14516049    -0.13200
F1833       F  0.08672398  0.72565908  0.13977221    -0.13700
C1834       C  0.03894609  0.67431232  0.15165108     0.16100
C1835       C  0.02374207  0.66535872  0.16501658     0.25500
C1836       C  0.02460540  0.65304217  0.19929225    -0.40800
C1837       C  0.04073605  0.64994112  0.22048184     0.32400
C1838       C  0.05584222  0.65913770  0.20780059     0.14100
F1839       F  0.03799712  0.68553742  0.11701136    -0.13200
F1840       F  0.04174148  0.63826496  0.25417284    -0.13700
F1841       F  0.00831734  0.66825354  0.14359595    -0.16000
F1842       F  0.07114705  0.65634075  0.22982382    -0.14500
F1843       F  0.05780773  0.70870939  0.17134821    -0.14500
F1844       F  0.11499476  0.66995126  0.11522389    -0.15900
C1845       C  0.17469853  0.76985705  0.76911288     0.14100
C1846       C  0.16513759  0.78083918  0.79745071     0.01100
C1847       C  0.15799468  0.79660555  0.78162960     0.16100
C1848       C  0.15977088  0.80103478  0.73726567     0.25500
C1849       C  0.16863334  0.78962171  0.70812104    -0.40900
C1850       C  0.17644961  0.77419171  0.72471459     0.32500
C1851       C  0.16109206  0.77489073  0.84226721     0.01100
F1852       F  0.14848842  0.80720686  0.80866953    -0.13200
F1853       F  0.18542412  0.76309592  0.69777509    -0.13700
C1854       C  0.17121433  0.78055068  0.87805876     0.16100
C1855       C  0.16761453  0.77425850  0.92032973     0.25500
C1856       C  0.15369681  0.76219800  0.92739087    -0.40800
C1857       C  0.14343440  0.75682475  0.89095390     0.32400
C1858       C  0.14715514  0.76312613  0.84891125     0.14100
F1859       F  0.18473696  0.79199046  0.87189387    -0.13200
F1860       F  0.12985670  0.74532560  0.89556762    -0.13700
F1861       F  0.17790266  0.77989751  0.95405891    -0.16000
F1862       F  0.13717212  0.75767000  0.81439868    -0.14500
F1863       F  0.18175946  0.75460214  0.78423517    -0.14500
F1864       F  0.15173377  0.81583198  0.72231384    -0.15900
C1865       C  0.18072439  0.75365988  0.37316396     0.14100
C1866       C  0.16711625  0.75269433  0.34207813     0.01100
C1867       C  0.15033343  0.75904237  0.35290497     0.16100
C1868       C  0.14702591  0.76607080  0.39440616     0.25500
C1869       C  0.16052282  0.76693507  0.42626094    -0.40900
C1870       C  0.17748280  0.76068506  0.41501110     0.32500
C1871       C  0.17011828  0.74559455  0.29756781     0.01100
F1872       F  0.13712344  0.75867327  0.32276753    -0.13200
F1873       F  0.19101393  0.76151062  0.44415811    -0.13700
C1874       C  0.16039654  0.73096174  0.28319643     0.16100
C1875       C  0.15994038  0.72653953  0.23865137     0.25500
C1876       C  0.16918280  0.73678785  0.20769629    -0.40800
C1877       C  0.18007397  0.75056990  0.22276791     0.32400
C1878       C  0.18054755  0.75491365  0.26745465     0.14100
F1879       F  0.15052289  0.72157577  0.31212375    -0.13200
F1880       F  0.18982111  0.76021112  0.19411190    -0.13700
F1881       F  0.14941258  0.71304248  0.22562660    -0.16000
F1882       F  0.19023312  0.76896245  0.28087425    -0.14500
F1883       F  0.19708276  0.74765954  0.36309925    -0.14500
F1884       F  0.13049030  0.77191008  0.40318755    -0.15900
C1885       C  0.41911475  0.80991260  0.96195341     0.14100
C1886       C  0.41411896  0.81919974  0.92401293     0.01100
C1887       C  0.39925511  0.81351034  0.90025261     0.16100
C1888       C  0.38970364  0.79870477  0.91375824     0.25500
C1889       C  0.39476841  0.78923578  0.95151209    -0.40900
C1890       C  0.40957278  0.79507407  0.97555509     0.32500
C1891       C  0.42477104  0.83431047  0.90782621     0.01100
F1892       F  0.39395420  0.82234798  0.86378397    -0.13200
F1893       F  0.41472550  0.78656717  0.01263200    -0.13700
C1894       C  0.43184980  0.83383295  0.86520276     0.16100
C1895       C  0.44115979  0.84819836  0.84849147     0.25500
C1896       C  0.44379692  0.86349030  0.87416164    -0.40800
C1897       C  0.43704049  0.86380687  0.91738913     0.32400
C1898       C  0.42764082  0.84933336  0.93404606     0.14100
F1899       F  0.42968843  0.81936553  0.83945783    -0.13200
F1900       F  0.43946067  0.87810434  0.94355334    -0.13700
F1901       F  0.44703238  0.84726333  0.80635644    -0.16000
F1902       F  0.42090458  0.85019963  0.97535937    -0.14500
F1903       F  0.43351594  0.81495461  0.98528598    -0.14500
F1904       F  0.37575727  0.79338782  0.88910143    -0.15900
C1905       C  0.34670963  0.73766489  0.75802568     0.14100
C1906       C  0.34472950  0.75541281  0.74661244     0.01100
C1907       C  0.34071438  0.76784973  0.77910383     0.16100
C1908       C  0.33986960  0.76283024  0.82313348     0.25500
C1909       C  0.34313679  0.74518574  0.83538988    -0.40900
C1910       C  0.34581372  0.73252474  0.80202621     0.32500
C1911       C  0.34857652  0.76129294  0.70163591     0.01100
F1912       F  0.33873917  0.78509469  0.76845068    -0.13200
F1913       F  0.34820905  0.71526216  0.81186950    -0.13700
C1914       C  0.33527797  0.76849927  0.67530962     0.16100
C1915       C  0.33926631  0.77486767  0.63343066     0.25500
C1916       C  0.35670285  0.77423360  0.61748138    -0.40800
C1917       C  0.37001156  0.76703532  0.64426142     0.32400
C1918       C  0.36593477  0.76057558  0.68594860     0.14100
F1919       F  0.31845401  0.76940867  0.69030846    -0.13200
F1920       F  0.38694387  0.76605082  0.63004352    -0.13700
F1921       F  0.32614076  0.78207470  0.60903923    -0.16000
F1922       F  0.37901384  0.75396729  0.71155236    -0.14500
F1923       F  0.35012100  0.72541899  0.72658300    -0.14500
F1924       F  0.33683883  0.77552512  0.85370481    -0.15900
C1925       C  0.36886131  0.76720825  0.19370556     0.14100
C1926       C  0.35390466  0.77736601  0.20287755     0.01100
C1927       C  0.34181747  0.78104053  0.16941697     0.16100
C1928       C  0.34455818  0.77445906  0.12701128     0.25500
C1929       C  0.35958696  0.76411923  0.11739087    -0.40900
C1930       C  0.37174945  0.76067267  0.15141574     0.32500
C1931       C  0.35070076  0.78334139  0.24814925     0.01100
F1932       F  0.32715960  0.79067482  0.17811979    -0.13200
F1933       F  0.38652716  0.75105559  0.14400939    -0.13700
C1934       C  0.35397854  0.80084201  0.26040700     0.16100
C1935       C  0.35340561  0.80574882  0.30477525     0.25500
C1936       C  0.34951963  0.79312397  0.33735285    -0.40800
C1937       C  0.34501828  0.77586229  0.32417342     0.32400
C1938       C  0.34574498  0.77103699  0.28001978     0.14100
F1939       F  0.35861212  0.81292586  0.22964376    -0.13200
F1940       F  0.34029984  0.76344040  0.35403766    -0.13700
F1941       F  0.35756850  0.82256694  0.31583993    -0.16000
F1942       F  0.34213616  0.75414575  0.26838456    -0.14500
F1943       F  0.38070419  0.76362407  0.22596113    -0.14500
F1944       F  0.33230655  0.77804427  0.09574143    -0.15900
C1945       C  0.27581103  0.72902151  0.04159722     0.14100
C1946       C  0.26574886  0.71830451  0.01359634     0.01100
C1947       C  0.27405049  0.70910568  0.97937898     0.16100
C1948       C  0.29215217  0.71123536  0.97204360     0.25500
C1949       C  0.30213647  0.72271862  0.99877206    -0.40900
C1950       C  0.29383128  0.73123103  0.03431294     0.32500
C1951       C  0.24639343  0.71844114  0.01777702     0.01100
F1952       F  0.26446064  0.69884204  0.95169447    -0.13200
F1953       F  0.30309324  0.74193462  0.06166743    -0.13700
C1954       C  0.23716572  0.73367303  0.00602647     0.16100
C1955       C  0.21924347  0.73520608  0.01515888     0.25500
C1956       C  0.21012218  0.72150975  0.03686365    -0.40800
C1957       C  0.21926375  0.70574413  0.04613169     0.32400
C1958       C  0.23728571  0.70425552  0.03657909     0.14100
F1959       F  0.24570991  0.74733689  0.98666693    -0.13200
F1960       F  0.21102435  0.69202417  0.06598300    -0.13700
F1961       F  0.21098934  0.75034576  0.00340960    -0.16000
F1962       F  0.24601398  0.68928654  0.04742375    -0.14500
F1963       F  0.26798874  0.73781274  0.07525913    -0.14500
F1964       F  0.29963915  0.70293405  0.93715975    -0.15900
C1965       C  0.54992754  0.65749229  0.39742323     0.14100
C1966       C  0.55377758  0.67384138  0.37830153     0.01100
C1967       C  0.54281233  0.68040762  0.34511423     0.16100
C1968       C  0.52816044  0.67074648  0.33102760     0.25500
C1969       C  0.52405884  0.65430384  0.35027524    -0.40900
C1970       C  0.53521083  0.64780176  0.38370722     0.32500
C1971       C  0.56906751  0.68420108  0.39373035     0.01100
F1972       F  0.54641195  0.69615856  0.32605270    -0.13200
F1973       F  0.53180214  0.63220312  0.40372451    -0.13700
C1974       C  0.58624122  0.67914170  0.38243356     0.16100
C1975       C  0.60077214  0.68833202  0.39918826     0.25500
C1976       C  0.59837613  0.70272255  0.42805603    -0.40800
C1977       C  0.58096562  0.70808022  0.43795718     0.32400
C1978       C  0.56651510  0.69890391  0.42085377     0.14100
F1979       F  0.58891576  0.66519673  0.35527044    -0.13200
F1980       F  0.57778197  0.72185855  0.46532422    -0.13700
F1981       F  0.61715962  0.68297153  0.38735176    -0.16000
F1982       F  0.54996148  0.70403896  0.43192858    -0.14500
F1983       F  0.56029433  0.65106466  0.43005869    -0.14500
F1984       F  0.51814938  0.67750301  0.29811430    -0.15900
C1985       C  0.40237543  0.71892778  0.46551542     0.14100
C1986       C  0.41582506  0.71968710  0.43383781     0.01100
C1987       C  0.42093284  0.73617869  0.41698384     0.16100
C1988       C  0.41255120  0.75161002  0.43125702     0.25500
C1989       C  0.39874318  0.75074040  0.46202743    -0.40900
C1990       C  0.39383534  0.73427049  0.47923201     0.32500
C1991       C  0.42414216  0.70320256  0.41779986     0.01100
F1992       F  0.43357424  0.73727163  0.38549958    -0.13200
F1993       F  0.38086396  0.73305311  0.50984038    -0.13700
C1994       C  0.41372887  0.68977210  0.39929644     0.16100
C1995       C  0.42147855  0.67424072  0.38389257     0.25500
C1996       C  0.43985451  0.67195264  0.38601337    -0.40800
C1997       C  0.45024767  0.68531668  0.40503089     0.32400
C1998       C  0.44244782  0.70075601  0.42094834     0.14100
F1999       F  0.39608403  0.69200236  0.39450387    -0.13200
F2000       F  0.46799688  0.68345010  0.40810487    -0.13700
F2001       F  0.41108599  0.66189433  0.36457251    -0.16000
F2002       F  0.45277953  0.71332059  0.43955164    -0.14500
F2003       F  0.39755909  0.70327165  0.48336512    -0.14500
F2004       F  0.41735654  0.76728508  0.41349225    -0.15900
C2005       C  0.40216486  0.63403001  0.16523467     0.14100
C2006       C  0.39604586  0.65152902  0.16643694     0.01100
C2007       C  0.40077773  0.66237395  0.20196910     0.16100
C2008       C  0.41241413  0.65631620  0.23397008     0.25500
C2009       C  0.41945057  0.63924241  0.23137100    -0.40900
C2010       C  0.41370791  0.62784914  0.19785764     0.32500
C2011       C  0.38751400  0.65973833  0.12776380     0.01100
F2012       F  0.39533795  0.67939273  0.20366388    -0.13200
F2013       F  0.42031611  0.61129220  0.19478187    -0.13700
C2014       C  0.37130091  0.66858972  0.13201790     0.16100
C2015       C  0.36576260  0.68043585  0.09948722     0.25500
C2016       C  0.37646728  0.68360469  0.06269863    -0.40800
C2017       C  0.39195619  0.67379708  0.05692137     0.32400
C2018       C  0.39739097  0.66186208  0.08903782     0.14100
F2019       F  0.36148955  0.66664921  0.16903722    -0.13200
F2020       F  0.40237439  0.67659920  0.02128084    -0.13700
F2021       F  0.35075270  0.68983347  0.10560638    -0.16000
F2022       F  0.41316949  0.65366477  0.08423205    -0.14500
F2023       F  0.39770016  0.62329445  0.13128011    -0.14500
F2024       F  0.41751603  0.66747362  0.26653713    -0.15900
C2025       C  0.44243712  0.33536909  0.10198426     0.14100
C2026       C  0.42413994  0.33251143  0.10541865     0.01100
C2027       C  0.41384127  0.34491654  0.12826849     0.16100
C2028       C  0.42157180  0.35978120  0.14726824     0.25500
C2029       C  0.43988956  0.36237336  0.14516168    -0.40900
C2030       C  0.45027643  0.35006644  0.12218562     0.32500
C2031       C  0.41561280  0.31642463  0.08699670     0.01100
F2032       F  0.39629217  0.34226475  0.13390053    -0.13200
F2033       F  0.46796444  0.35238698  0.11886456    -0.13700
C2034       C  0.42146176  0.29950874  0.09902273     0.16100
C2035       C  0.41190966  0.28450160  0.08648495     0.25500
C2036       C  0.39611964  0.28615151  0.06250394    -0.40800
C2037       C  0.39074628  0.30299849  0.04880103     0.32400
C2038       C  0.40050178  0.31792375  0.06043373     0.14100
F2039       F  0.43590183  0.29752870  0.12489233    -0.13200
F2040       F  0.37604540  0.30503913  0.02387014    -0.13700
F2041       F  0.41763263  0.26843489  0.09979099    -0.16000
F2042       F  0.39502343  0.33394941  0.04620883    -0.14500
F2043       F  0.45269598  0.32399975  0.07891009    -0.14500
F2044       F  0.41118143  0.37119936  0.16982318    -0.15900
C2045       C  0.39321286  0.37620503  0.44024048     0.14100
C2046       C  0.38353965  0.37751396  0.40097788     0.01100
C2047       C  0.36771042  0.36800209  0.39653618     0.16100
C2048       C  0.36250985  0.35613794  0.42928599     0.25500
C2049       C  0.37314786  0.35370717  0.46650500    -0.40900
C2050       C  0.38809629  0.36428642  0.47262724     0.32500
C2051       C  0.39223252  0.38516485  0.36197575     0.01100
F2052       F  0.35813223  0.36916291  0.35893221    -0.13200
F2053       F  0.39838603  0.36220736  0.50879764    -0.13700
C2054       C  0.39731919  0.37372932  0.32794238     0.16100
C2055       C  0.40933138  0.37923531  0.29629313     0.25500
C2056       C  0.41641077  0.39630164  0.29784853    -0.40800
C2057       C  0.41036557  0.40825290  0.32971684     0.32400
C2058       C  0.39839048  0.40265520  0.36194005     0.14100
F2059       F  0.39197793  0.35665748  0.32774069    -0.13200
F2060       F  0.41717395  0.42476175  0.33189483    -0.13700
F2061       F  0.41487479  0.36751473  0.26547442    -0.16000
F2062       F  0.39366281  0.41390269  0.39460256    -0.14500
F2063       F  0.40862967  0.38506734  0.44525353    -0.14500
F2064       F  0.34804023  0.34593891  0.42286750    -0.15900
C2065       C  0.46641710  0.53666646  0.24868197     0.14100
C2066       C  0.45328402  0.52665821  0.26934492     0.01100
C2067       C  0.44216198  0.53477766  0.30020128     0.16100
C2068       C  0.44441100  0.55260490  0.31101207     0.25500
C2069       C  0.45800886  0.56257094  0.29142720    -0.40900
C2070       C  0.46878652  0.55438904  0.25953741     0.32500
C2071       C  0.45221770  0.50749531  0.26065834     0.01100
F2072       F  0.42929192  0.52533909  0.32033099    -0.13200
F2073       F  0.48183335  0.56345286  0.23902655    -0.13700
C2074       C  0.45706785  0.49548751  0.29360701     0.16100
C2075       C  0.45880569  0.47757323  0.28378078     0.25500
C2076       C  0.45542242  0.47134475  0.24102780    -0.40800
C2077       C  0.44963776  0.48321987  0.20866090     0.32400
C2078       C  0.44821195  0.50119726  0.21831570     0.14100
F2079       F  0.46109071  0.50126685  0.33467978    -0.13200
F2080       F  0.44654703  0.47760467  0.16693727    -0.13700
F2081       F  0.46416559  0.46633440  0.31579360    -0.16000
F2082       F  0.44352921  0.51256930  0.18595478    -0.14500
F2083       F  0.47747567  0.52904136  0.21915732    -0.14500
F2084       F  0.43374185  0.55984875  0.34195422    -0.15900
C2085       C  0.59022390  0.68876678  0.92372845     0.14100
C2086       C  0.58986274  0.70470063  0.90055755     0.01100
C2087       C  0.57980521  0.70599997  0.86211546     0.16100
C2088       C  0.57039931  0.69144096  0.84646043     0.25500
C2089       C  0.57093044  0.67515044  0.86904094    -0.40900
C2090       C  0.58088894  0.67410556  0.90820400     0.32500
C2091       C  0.60012068  0.71996417  0.91638060     0.01100
F2092       F  0.57928466  0.72136895  0.83938185    -0.13200
F2093       F  0.58183184  0.65887229  0.93136355    -0.13700
C2094       C  0.61714231  0.72309564  0.90025928     0.16100
C2095       C  0.62703047  0.73735895  0.91592083     0.25500
C2096       C  0.61998006  0.74883430  0.94799815    -0.40800
C2097       C  0.60272965  0.74564738  0.96361371     0.32400
C2098       C  0.59294898  0.73134779  0.94789995     0.14100
F2099       F  0.62420040  0.71226026  0.86938838    -0.13200
F2100       F  0.59534947  0.75614043  0.99474927    -0.13700
F2101       F  0.64341771  0.73998197  0.89924814    -0.16000
F2102       F  0.57643032  0.72855539  0.96355117    -0.14500
F2103       F  0.59989172  0.68735735  0.96112652    -0.14500
F2104       F  0.56121243  0.69328506  0.80841698    -0.15900
C2105       C  0.63514830  0.65591237  0.60468099     0.14100
C2106       C  0.62739673  0.66055771  0.64494954     0.01100
C2107       C  0.62691507  0.67832961  0.65769813     0.16100
C2108       C  0.63245539  0.69141849  0.62868905     0.25500
C2109       C  0.63872503  0.68691146  0.58663502    -0.40900
C2110       C  0.64095584  0.66901427  0.57578171     0.32500
C2111       C  0.61645199  0.64783581  0.66930400     0.01100
F2112       F  0.61947848  0.68311562  0.69655456    -0.13200
F2113       F  0.64717413  0.66421180  0.53565186    -0.13700
C2114       C  0.62003084  0.64397873  0.71351962     0.16100
C2115       C  0.60696117  0.63652754  0.74009408     0.25500
C2116       C  0.59005261  0.63318616  0.72276606    -0.40800
C2117       C  0.58718534  0.63537703  0.67738557     0.32400
C2118       C  0.60031416  0.64260542  0.65085869     0.14100
F2119       F  0.63563416  0.64880839  0.73175077    -0.13200
F2120       F  0.57119441  0.63183968  0.65936039    -0.13700
F2121       F  0.61025967  0.63446808  0.78368308    -0.16000
F2122       F  0.59656125  0.64629717  0.60817310    -0.14500
F2123       F  0.63588894  0.63877410  0.59210299    -0.14500
F2124       F  0.63074951  0.70855111  0.64076801    -0.15900
C2125       C  0.42284751  0.68144294  0.86100989     0.14100
C2126       C  0.43996190  0.68834537  0.86466616     0.01100
C2127       C  0.44234366  0.70478735  0.88501527     0.16100
C2128       C  0.42807006  0.71361444  0.90399938     0.25500
C2129       C  0.41107412  0.70604519  0.90363634    -0.40900
C2130       C  0.40856008  0.69012080  0.88036474     0.32500
C2131       C  0.45544549  0.67770196  0.85111093     0.01100
F2132       F  0.45870078  0.71186322  0.88888050    -0.13200
F2133       F  0.39242929  0.68245228  0.87770987    -0.13700
C2134       C  0.46824252  0.68454856  0.82242061     0.16100
C2135       C  0.48336227  0.67478921  0.81223161     0.25500
C2136       C  0.48588906  0.65785278  0.83016624    -0.40800
C2137       C  0.47288346  0.65097948  0.85849409     0.32400
C2138       C  0.45792039  0.66082667  0.86896058     0.14100
F2139       F  0.46599725  0.70062907  0.80380962    -0.13200
F2140       F  0.47477593  0.63485281  0.87711327    -0.13700
F2141       F  0.49533769  0.68183482  0.78413178    -0.16000
F2142       F  0.44605345  0.65403825  0.89776393    -0.14500
F2143       F  0.42003590  0.66596027  0.83972692    -0.14500
F2144       F  0.43112699  0.72928713  0.92412769    -0.15900
C2145       C  0.53615744  0.61136771  0.03919746     0.14100
C2146       C  0.51839545  0.61288526  0.05124583     0.01100
C2147       C  0.50533572  0.61273506  0.01880433     0.16100
C2148       C  0.50989774  0.61173102  0.97457040     0.25500
C2149       C  0.52778251  0.61092666  0.96169637    -0.40900
C2150       C  0.54086886  0.61042213  0.99471722     0.32500
C2151       C  0.51324242  0.61574690  0.09730437     0.01100
F2152       F  0.48805845  0.61392236  0.03008503    -0.13200
F2153       F  0.55821344  0.60931997  0.98418024    -0.13700
C2154       C  0.50574040  0.63188510  0.10949723     0.16100
C2155       C  0.49926134  0.63435214  0.15191081     0.25500
C2156       C  0.50015535  0.62064290  0.18302113    -0.40800
C2157       C  0.50804843  0.60454092  0.17083888     0.32400
C2158       C  0.51455027  0.60214639  0.12821439     0.14100
F2159       F  0.50455327  0.64523841  0.07998091    -0.13200
F2160       F  0.50892635  0.59089467  0.19955006    -0.13700
F2161       F  0.49220548  0.65023450  0.16244114    -0.16000
F2162       F  0.52151322  0.58635327  0.11657747    -0.14500
F2163       F  0.54893722  0.61145371  0.07044719    -0.14500
F2164       F  0.49666711  0.61211810  0.94452087    -0.15900
C2165       C  0.48929473  0.59638453  0.63079934     0.14100
C2166       C  0.49460156  0.60628475  0.59432266     0.01100
C2167       C  0.50721743  0.61958056  0.59930915     0.16100
C2168       C  0.51437078  0.62318864  0.64052452     0.25500
C2169       C  0.50896636  0.61351795  0.67775841    -0.40900
C2170       C  0.49643914  0.59991709  0.67231866     0.32500
C2171       C  0.48694855  0.60319787  0.55066344     0.01100
F2172       F  0.51246487  0.62923249  0.56408388    -0.13200
F2173       F  0.49075670  0.59030085  0.70716253    -0.13700
C2174       C  0.47173283  0.61229440  0.53803153     0.16100
C2175       C  0.46633441  0.61221775  0.49410331     0.25500
C2176       C  0.47620771  0.60304640  0.46207960    -0.40800
C2177       C  0.49086795  0.59300297  0.47577147     0.32400
C2178       C  0.49621516  0.59319324  0.51969395     0.14100
F2179       F  0.46278098  0.62219207  0.56779061    -0.13200
F2180       F  0.50051670  0.58355307  0.44647157    -0.13700
F2181       F  0.45219654  0.62215014  0.48266345    -0.16000
F2182       F  0.51100934  0.58436963  0.53165931    -0.14500
F2183       F  0.47710724  0.58342457  0.62618549    -0.14500
F2184       F  0.52663338  0.63615469  0.64371824    -0.15900
C2185       C  0.47213190  0.35933436  0.65337966     0.14100
C2186       C  0.45554927  0.36213799  0.67297539     0.01100
C2187       C  0.45419243  0.37437332  0.70767820     0.16100
C2188       C  0.46900854  0.38388315  0.72172640     0.25500
C2189       C  0.48551033  0.38106900  0.70198891    -0.40900
C2190       C  0.48699754  0.36857250  0.66809607     0.32500
C2191       C  0.43965957  0.35271504  0.65622452     0.01100
F2192       F  0.43854052  0.37698040  0.72829052    -0.13200
F2193       F  0.50274170  0.36584472  0.64800813    -0.13700
C2194       C  0.43938924  0.33422720  0.65324125     0.16100
C2195       C  0.42488055  0.32545603  0.63484808     0.25500
C2196       C  0.41017487  0.33497028  0.61953459    -0.40800
C2197       C  0.41027991  0.35346901  0.62371959     0.32400
C2198       C  0.42488423  0.36221804  0.64159517     0.14100
F2199       F  0.45320539  0.32462294  0.66829126    -0.13200
F2200       F  0.39659909  0.36323928  0.60855284    -0.13700
F2201       F  0.42522181  0.30761617  0.63220666    -0.16000
F2202       F  0.42487898  0.38008807  0.64287808    -0.14500
F2203       F  0.47382553  0.34808882  0.61888922    -0.14500
F2204       F  0.46732995  0.39560910  0.75521895    -0.15900
C2205       C  0.52071605  0.42264021  0.40545291     0.14100
C2206       C  0.50959524  0.42130579  0.44224053     0.01100
C2207       C  0.49180734  0.41668464  0.43591077     0.16100
C2208       C  0.48532580  0.41324662  0.39361934     0.25500
C2209       C  0.49650051  0.41443615  0.35682291    -0.40900
C2210       C  0.51425616  0.41923299  0.36320583     0.32500
C2211       C  0.51665889  0.42406494  0.48729641     0.01100
F2212       F  0.48075873  0.41518168  0.47083107    -0.13200
F2213       F  0.52550966  0.42026699  0.32857664    -0.13700
C2214       C  0.50885131  0.43637894  0.51583750     0.16100
C2215       C  0.51447966  0.43775650  0.55954445     0.25500
C2216       C  0.52822402  0.42705620  0.57530941    -0.40800
C2217       C  0.53664732  0.41540164  0.54614533     0.32400
C2218       C  0.53082105  0.41381997  0.50263676     0.14100
F2219       F  0.49565742  0.44697423  0.50145859    -0.13200
F2220       F  0.54975242  0.40469096  0.56049914    -0.13700
F2221       F  0.50640607  0.44947490  0.58662684    -0.16000
F2222       F  0.53842438  0.40159740  0.47612007    -0.14500
F2223       F  0.53784999  0.42739630  0.41040935    -0.14500
F2224       F  0.46802751  0.40914129  0.38859645    -0.15900
C2225       C  0.49313426  0.44234068  0.90957032     0.14100
C2226       C  0.49848106  0.43180168  0.94488768     0.01100
C2227       C  0.51050987  0.41812065  0.93792558     0.16100
C2228       C  0.51671225  0.41454199  0.89573835     0.25500
C2229       C  0.51095242  0.42465250  0.85957362    -0.40900
C2230       C  0.49940684  0.43889678  0.86715484     0.32500
C2231       C  0.49075611  0.43408231  0.98878704     0.01100
F2232       F  0.51582504  0.40785270  0.97197682    -0.13200
F2233       F  0.49371567  0.44914662  0.83349296    -0.13700
C2234       C  0.47420538  0.42681029  0.99792244     0.16100
C2235       C  0.46803979  0.42606160  0.04114596     0.25500
C2236       C  0.47843751  0.43259559  0.07607945    -0.40800
C2237       C  0.49462941  0.44090365  0.06603694     0.32400
C2238       C  0.50074829  0.44148319  0.02276933     0.14100
F2239       F  0.46449134  0.41945534  0.96518280    -0.13200
F2240       F  0.50499371  0.44783881  0.09808999    -0.13700
F2241       F  0.45228524  0.41815519  0.04872038    -0.16000
F2242       F  0.51679447  0.44861239  0.01419761    -0.14500
F2243       F  0.48163205  0.45576494  0.91615502    -0.14500
F2244       F  0.52829770  0.40108585  0.89047331    -0.15900
C2245       C  0.54279014  0.50533346  0.72803542     0.14100
C2246       C  0.55600712  0.51002190  0.75814641     0.01100
C2247       C  0.56823668  0.49724763  0.77168839     0.16100
C2248       C  0.56658990  0.47974051  0.75724742     0.25500
C2249       C  0.55260171  0.47482882  0.72929391    -0.40900
C2250       C  0.54108777  0.48794845  0.71376699     0.32500
C2251       C  0.55566704  0.52780848  0.77817781     0.01100
F2252       F  0.58108673  0.50150416  0.80088613    -0.13200
F2253       F  0.52786339  0.48385445  0.68543680    -0.13700
C2254       C  0.54118297  0.53267045  0.80416531     0.16100
C2255       C  0.53925726  0.54999197  0.81868350     0.25500
C2256       C  0.55180313  0.56290609  0.80748852    -0.40800
C2257       C  0.56688446  0.55780326  0.78359065     0.32400
C2258       C  0.56877065  0.54034797  0.76895199     0.14100
F2259       F  0.52858087  0.52065867  0.81444677    -0.13200
F2260       F  0.57920896  0.56989495  0.77199819    -0.13700
F2261       F  0.52487092  0.55420325  0.84308785    -0.16000
F2262       F  0.58285944  0.53592227  0.74377342    -0.14500
F2263       F  0.53110552  0.51756465  0.71359682    -0.14500
F2264       F  0.57790072  0.46742753  0.77297620    -0.15900
C2265       C  0.58615639  0.23515778  0.07895654     0.14100
C2266       C  0.59386679  0.22138124  0.10285481     0.01100
C2267       C  0.61164730  0.22263109  0.11508416     0.16100
C2268       C  0.62166069  0.23734192  0.10339803     0.25500
C2269       C  0.61408268  0.25123630  0.07905119    -0.40900
C2270       C  0.59612644  0.24992407  0.06706574     0.32500
C2271       C  0.58337680  0.20587388  0.11647690     0.01100
F2272       F  0.61925398  0.20969083  0.13930446    -0.13200
F2273       F  0.58816053  0.26278404  0.04333059    -0.13700
C2274       C  0.58837359  0.18888255  0.10323874     0.16100
C2275       C  0.57988451  0.17405778  0.12046419     0.25500
C2276       C  0.56620912  0.17594044  0.15159668    -0.40800
C2277       C  0.56056382  0.19314322  0.16264584     0.32400
C2278       C  0.56910895  0.20789803  0.14532359     0.14100
F2279       F  0.60178944  0.18665045  0.07422500    -0.13200
F2280       F  0.54721314  0.19584745  0.19160734    -0.13700
F2281       F  0.58549692  0.15789435  0.10752893    -0.16000
F2282       F  0.56403034  0.22419905  0.15862548    -0.14500
F2283       F  0.56899707  0.23418474  0.06655376    -0.14500
F2284       F  0.63875695  0.23794603  0.11645124    -0.15900
C2285       C  0.62998092  0.36402299  0.89074029     0.14100
C2286       C  0.62549718  0.38088582  0.90628956     0.01100
C2287       C  0.62914305  0.38518716  0.95044945     0.16100
C2288       C  0.63552586  0.37231309  0.97944096     0.25500
C2289       C  0.63829010  0.35496812  0.96459258    -0.40900
C2290       C  0.63631752  0.35122811  0.91958670     0.32500
C2291       C  0.61409001  0.39229940  0.87861413     0.01100
F2292       F  0.62539947  0.40150693  0.96612728    -0.13200
F2293       F  0.63947522  0.33478183  0.90398628    -0.13700
C2294       C  0.59688793  0.39608835  0.89289603     0.16100
C2295       C  0.58422493  0.40212229  0.86318343     0.25500
C2296       C  0.58841745  0.40434952  0.81838292    -0.40800
C2297       C  0.60611606  0.40245560  0.80515970     0.32400
C2298       C  0.61884601  0.39647643  0.83510847     0.14100
F2299       F  0.59181358  0.39230000  0.93466237    -0.13200
F2300       F  0.61082083  0.40482681  0.76249775    -0.13700
F2301       F  0.56752321  0.40472017  0.87780776    -0.16000
F2302       F  0.63554797  0.39356305  0.82086799    -0.14500
F2303       F  0.62659824  0.35934279  0.84845158    -0.14500
F2304       F  0.63736489  0.37638047  0.02270931    -0.15900
C2305       C  0.54201777  0.35589616  0.19730817     0.14100
C2306       C  0.55244600  0.36212217  0.16263498     0.01100
C2307       C  0.54756652  0.37759976  0.14061710     0.16100
C2308       C  0.53259124  0.38694743  0.15364468     0.25500
C2309       C  0.52221110  0.38093167  0.18909142    -0.40900
C2310       C  0.52705464  0.36516713  0.21046054     0.32500
C2311       C  0.56847998  0.35248714  0.14958974     0.01100
F2312       F  0.55719978  0.38352422  0.10601120    -0.13200
F2313       F  0.51756529  0.35880101  0.24480509    -0.13700
C2314       C  0.56729942  0.33512223  0.13408485     0.16100
C2315       C  0.58237859  0.32629956  0.11979280     0.25500
C2316       C  0.59891258  0.33476506  0.12054523    -0.40800
C2317       C  0.60013524  0.35190689  0.13803407     0.32400
C2318       C  0.58501408  0.36069534  0.15226611     0.14100
F2319       F  0.55142138  0.32695313  0.13115851    -0.13200
F2320       F  0.61578220  0.36056836  0.13920319    -0.13700
F2321       F  0.58072331  0.30958894  0.10436853    -0.16000
F2322       F  0.58645280  0.37736336  0.16806602    -0.14500
F2323       F  0.54657685  0.34099480  0.21913195    -0.14500
F2324       F  0.52817742  0.40171952  0.13109687    -0.15900
C2325       C  0.77182840  0.33042264  0.98184878     0.14100
C2326       C  0.76431978  0.32097779  0.01681970     0.01100
C2327       C  0.77490579  0.30993046  0.04251181     0.16100
C2328       C  0.79263991  0.30763549  0.03205904     0.25500
C2329       C  0.80009389  0.31650640  0.99596455    -0.40900
C2330       C  0.78971652  0.32834828  0.97170663     0.32500
C2331       C  0.74510993  0.32059955  0.02304638     0.01100
F2332       F  0.76780952  0.30066176  0.07633246    -0.13200
F2333       F  0.79658363  0.33698979  0.93661161    -0.13700
C2334       C  0.73501007  0.30905162  0.99737457     0.16100
C2335       C  0.71712082  0.30679125  0.00605919     0.25500
C2336       C  0.70900075  0.31617210  0.04045421    -0.40800
C2337       C  0.71903948  0.32819481  0.06533224     0.32400
C2338       C  0.73706509  0.33026132  0.05689022     0.14100
F2339       F  0.74269534  0.29940921  0.96499502    -0.13200
F2340       F  0.71165228  0.33715295  0.09932391    -0.13700
F2341       F  0.70776135  0.29525129  0.98112634    -0.16000
F2342       F  0.74678817  0.34122109  0.08253766    -0.14500
F2343       F  0.76164399  0.34103449  0.95652384    -0.14500
F2344       F  0.80249623  0.29645511  0.05671932    -0.15900
C2345       C  0.91580312  0.23506205  0.91731428     0.14100
C2346       C  0.91171006  0.21875795  0.93674505     0.01100
C2347       C  0.89836141  0.21793950  0.96871194     0.16100
C2348       C  0.88891468  0.23304988  0.98015726     0.25500
C2349       C  0.89286037  0.24928006  0.96037598    -0.40900
C2350       C  0.90652510  0.25025608  0.92933051     0.32500
C2351       C  0.92062881  0.20244759  0.92195099     0.01100
F2352       F  0.89453265  0.20247984  0.98894905    -0.13200
F2353       F  0.91038043  0.26577187  0.90939053    -0.13700
C2354       C  0.93902415  0.20071829  0.92483579     0.16100
C2355       C  0.94738892  0.18564352  0.90843947     0.25500
C2356       C  0.93745496  0.17197163  0.88921881    -0.40800
C2357       C  0.91898706  0.17357572  0.88747433     0.32400
C2358       C  0.91068894  0.18868674  0.90351925     0.14100
F2359       F  0.94888053  0.21367020  0.94340228    -0.13200
F2360       F  0.90899179  0.16100587  0.86775389    -0.13700
F2361       F  0.96520622  0.18446623  0.91113125    -0.16000
F2362       F  0.89295185  0.19024589  0.89918415    -0.14500
F2363       F  0.92833326  0.23613509  0.88555721    -0.14500
F2364       F  0.87610475  0.23192042  0.01121501    -0.15900
C2365       C  0.87674161  0.38102866  0.09703173     0.14100
C2366       C  0.88078040  0.37598301  0.14032968     0.01100
C2367       C  0.87668368  0.35882847  0.15424338     0.16100
C2368       C  0.87057429  0.34638178  0.12409675     0.25500
C2369       C  0.86861433  0.35084431  0.07944368    -0.40900
C2370       C  0.87064452  0.36855055  0.06672138     0.32500
C2371       C  0.89253769  0.38694306  0.16789664     0.01100
F2372       F  0.88037822  0.35356893  0.19590942    -0.13200
F2373       F  0.86848343  0.37344568  0.02412689    -0.13700
C2374       C  0.88806948  0.39115650  0.21150340     0.16100
C2375       C  0.90096030  0.39739540  0.24061136     0.25500
C2376       C  0.91853534  0.39938209  0.22642449    -0.40800
C2377       C  0.92250888  0.39671859  0.18168026     0.32400
C2378       C  0.90967082  0.39048540  0.15279881     0.14100
F2379       F  0.87149933  0.38814789  0.22655287    -0.13200
F2380       F  0.93912194  0.39917371  0.16629189    -0.13700
F2381       F  0.89653355  0.40001999  0.28338742    -0.16000
F2382       F  0.91445500  0.38635448  0.11098562    -0.14500
F2383       F  0.88012602  0.39768210  0.08323500    -0.14500
F2384       F  0.86780228  0.32961706  0.13798984    -0.15900
C2385       C  0.94214125  0.34268937  0.93226829     0.14100
C2386       C  0.94171134  0.35014054  0.89018690     0.01100
C2387       C  0.92613589  0.34920974  0.86533073     0.16100
C2388       C  0.91109714  0.34100737  0.88251659     0.25500
C2389       C  0.91138795  0.33364199  0.92505328    -0.40900
C2390       C  0.92718256  0.33456673  0.94963943     0.32500
C2391       C  0.95720841  0.35986429  0.87357309     0.01100
F2392       F  0.92551500  0.35631920  0.82441588    -0.13200
F2393       F  0.92805962  0.32823669  0.99133639    -0.13700
C2394       C  0.97305877  0.35109177  0.86434234     0.16100
C2395       C  0.98787352  0.36052677  0.85014532     0.25500
C2396       C  0.98712309  0.37899975  0.84528928    -0.40800
C2397       C  0.97108677  0.38767261  0.85498022     0.32400
C2398       C  0.95635542  0.37817220  0.86884973     0.14100
F2399       F  0.97414658  0.33335318  0.86900353    -0.13200
F2400       F  0.96951765  0.40541032  0.85123112    -0.13700
F2401       F  0.00295276  0.35152762  0.84170797    -0.16000
F2402       F  0.94128328  0.38694843  0.87877972    -0.14500
F2403       F  0.95690629  0.34390528  0.95733309    -0.14500
F2404       F  0.89630892  0.34029894  0.85746322    -0.15900
C2405       C  0.67549244  0.27352647  0.25846609     0.14100
C2406       C  0.66567544  0.28298782  0.28950394     0.01100
C2407       C  0.65709657  0.29853858  0.27715124     0.16100
C2408       C  0.65735108  0.30405439  0.23347666     0.25500
C2409       C  0.66615538  0.29397188  0.20140732    -0.40900
C2410       C  0.67575079  0.27896852  0.21460325     0.32500
C2411       C  0.66228984  0.27558567  0.33321528     0.01100
F2412       F  0.64766406  0.30785614  0.30715536    -0.13200
F2413       F  0.68492068  0.26925015  0.18488117    -0.13700
C2414       C  0.67534377  0.27554835  0.36574441     0.16100
C2415       C  0.67138378  0.26957119  0.40807345     0.25500
C2416       C  0.65428366  0.26344357  0.41816015    -0.40800
C2417       C  0.64141831  0.26310954  0.38473247     0.32400
C2418       C  0.64543495  0.26911794  0.34271609     0.14100
F2419       F  0.69178121  0.28159758  0.35668940    -0.13200
F2420       F  0.62478009  0.25736184  0.39273356    -0.13700
F2421       F  0.68431778  0.26967927  0.43892273    -0.16000
F2422       F  0.63279028  0.26875224  0.31110691    -0.14500
F2423       F  0.68392201  0.25847567  0.27013550    -0.14500
F2424       F  0.64791797  0.31854497  0.22222759    -0.15900
C2425       C  0.65314049  0.23828680  0.77642572     0.14100
C2426       C  0.66222733  0.25352929  0.78918586     0.01100
C2427       C  0.67222019  0.26284463  0.75832628     0.16100
C2428       C  0.67260468  0.25740847  0.71458148     0.25500
C2429       C  0.66277853  0.24259900  0.70086034    -0.40900
C2430       C  0.65338399  0.23282364  0.73253685     0.32500
C2431       C  0.65999118  0.26069103  0.83366493     0.01100
F2432       F  0.68119176  0.27755017  0.77043900    -0.13200
F2433       F  0.64357557  0.21862256  0.72078290    -0.13700
C2434       C  0.66708305  0.25198250  0.87018106     0.16100
C2435       C  0.66458752  0.25881631  0.91240512     0.25500
C2436       C  0.65474735  0.27436371  0.91850785    -0.40800
C2437       C  0.64780725  0.28308726  0.88151566     0.32400
C2438       C  0.65046661  0.27631428  0.83948546     0.14100
F2439       F  0.67640735  0.23688486  0.86483185    -0.13200
F2440       F  0.63849386  0.29823945  0.88587093    -0.13700
F2441       F  0.67133144  0.24993080  0.94726997    -0.16000
F2442       F  0.64344476  0.28483413  0.80436666    -0.14500
F2443       F  0.64320520  0.22930659  0.80600847    -0.14500
F2444       F  0.68227446  0.26695598  0.68555441    -0.15900
C2445       C  0.61774598  0.14509518  0.32711642     0.14100
C2446       C  0.61305922  0.14908392  0.37069609     0.01100
C2447       C  0.59592325  0.14535928  0.38539721     0.16100
C2448       C  0.58318287  0.13937644  0.35586416     0.25500
C2449       C  0.58743782  0.13686479  0.31128206    -0.40900
C2450       C  0.60503008  0.13885946  0.29758948     0.32500
C2451       C  0.62428118  0.16068883  0.39773924     0.01100
F2452       F  0.59106029  0.14923698  0.42730471    -0.13200
F2453       F  0.60952574  0.13650165  0.25476256    -0.13700
C2454       C  0.62608657  0.17835355  0.38500637     0.16100
C2455       C  0.63225583  0.19084368  0.41484729     0.25500
C2456       C  0.63680421  0.18586291  0.45789513    -0.40800
C2457       C  0.63661517  0.16792969  0.46935113     0.32400
C2458       C  0.63021005  0.15540355  0.43946669     0.14100
F2459       F  0.62018282  0.18381935  0.34511793    -0.13200
F2460       F  0.64093941  0.16277842  0.51070760    -0.13700
F2461       F  0.63263343  0.20803861  0.40262781    -0.16000
F2462       F  0.62861318  0.13836179  0.45223500    -0.14500
F2463       F  0.63426609  0.14859139  0.31240355    -0.14500
F2464       F  0.56640724  0.13706635  0.37025508    -0.15900
C2465       C  0.53470888  0.17883086  0.64751346     0.14100
C2466       C  0.55155691  0.17556053  0.66499528     0.01100
C2467       C  0.55352321  0.16277942  0.69806215     0.16100
C2468       C  0.53898822  0.15313005  0.71259996     0.25500
C2469       C  0.52219315  0.15642893  0.69515571    -0.40900
C2470       C  0.52009035  0.16947177  0.66291014     0.32500
C2471       C  0.56717701  0.18499154  0.64780783     0.01100
F2472       F  0.56953220  0.15972045  0.71646166    -0.13200
F2473       F  0.50400322  0.17259181  0.64500722    -0.13700
C2474       C  0.56771776  0.20350159  0.64716170     0.16100
C2475       C  0.58237822  0.21228536  0.62993738     0.25500
C2476       C  0.59684923  0.20268086  0.61388854    -0.40800
C2477       C  0.59638139  0.18417673  0.61513070     0.32400
C2478       C  0.58161948  0.17542644  0.63151092     0.14100
F2479       F  0.55411175  0.21306593  0.66357370    -0.13200
F2480       F  0.60987581  0.17451034  0.59845035    -0.13700
F2481       F  0.58252114  0.23015853  0.62940349    -0.16000
F2482       F  0.58118503  0.15756103  0.63003821    -0.14500
F2483       F  0.53251444  0.19062331  0.61444223    -0.14500
F2484       F  0.54124650  0.14075146  0.74428348    -0.15900
C2485       C  0.58655109  0.34911313  0.60518303     0.14100
C2486       C  0.58435132  0.33264312  0.62519668     0.01100
C2487       C  0.57335712  0.33106633  0.66190983     0.16100
C2488       C  0.56517377  0.34589196  0.67971436     0.25500
C2489       C  0.56800621  0.36275764  0.66128325    -0.40900
C2490       C  0.57848638  0.36408159  0.62302796     0.32500
C2491       C  0.59450980  0.31728213  0.60996111     0.01100
F2492       F  0.57086023  0.31513328  0.68115035    -0.13200
F2493       F  0.58134556  0.37986355  0.60337934    -0.13700
C2494       C  0.60890117  0.31136429  0.63480049     0.16100
C2495       C  0.61865668  0.29679120  0.62094803     0.25500
C2496       C  0.61402893  0.28775387  0.58213441    -0.40800
C2497       C  0.59941263  0.29364620  0.55756211     0.32400
C2498       C  0.58980056  0.30837359  0.57131046     0.14100
F2499       F  0.61352582  0.31980166  0.67248922    -0.13200
F2500       F  0.59463951  0.28540438  0.51972932    -0.13700
F2501       F  0.63239196  0.29131560  0.64606024    -0.16000
F2502       F  0.57579810  0.31386289  0.54717291    -0.14500
F2503       F  0.59708504  0.35078597  0.56933825    -0.14500
F2504       F  0.55491166  0.34365263  0.71586777    -0.15900
C2505       C  0.83283493  0.25546209  0.16859728     0.14100
C2506       C  0.84440630  0.25955950  0.20302332     0.01100
C2507       C  0.85914854  0.27013463  0.19502267     0.16100
C2508       C  0.86249782  0.27646737  0.15291103     0.25500
C2509       C  0.85113830  0.27222197  0.11764764    -0.40900
C2510       C  0.83614396  0.26173143  0.12610109     0.32500
C2511       C  0.84185826  0.25220143  0.24720170     0.01100
F2512       F  0.87042677  0.27422320  0.22819355    -0.13200
F2513       F  0.82488499  0.25719054  0.09327899    -0.13700
C2514       C  0.85218951  0.23792734  0.26056688     0.16100
C2515       C  0.85183778  0.23229815  0.30417170     0.25500
C2516       C  0.84116715  0.24099350  0.33540131    -0.40800
C2517       C  0.83037862  0.25503507  0.32135913     0.32400
C2518       C  0.83073764  0.26056320  0.27748602     0.14100
F2519       F  0.86326151  0.22995665  0.23165320    -0.13200
F2520       F  0.81982813  0.26372203  0.35018124    -0.13700
F2521       F  0.86282445  0.21904657  0.31618854    -0.16000
F2522       F  0.82086904  0.27458926  0.26494902    -0.14500
F2523       F  0.81857943  0.24508267  0.17602901    -0.14500
F2524       F  0.87689838  0.28681424  0.14698012    -0.15900
C2525       C  0.86458927  0.26227048  0.69504021     0.14100
C2526       C  0.85122504  0.27460224  0.70257133     0.01100
C2527       C  0.84018755  0.27973694  0.66811244     0.16100
C2528       C  0.84247243  0.27261666  0.62614860     0.25500
C2529       C  0.85591493  0.26012665  0.61803454    -0.40900
C2530       C  0.86694152  0.25503953  0.65322343     0.32500
C2531       C  0.84857545  0.28171069  0.74694917     0.01100
F2532       F  0.82721456  0.29171177  0.67517572    -0.13200
F2533       F  0.88007246  0.24312778  0.64744941    -0.13700
C2534       C  0.85880047  0.29588005  0.76184063     0.16100
C2535       C  0.85748418  0.30149892  0.80548055     0.25500
C2536       C  0.84607033  0.29279641  0.83480245    -0.40800
C2537       C  0.83534356  0.27902871  0.81912931     0.32400
C2538       C  0.83656123  0.27357939  0.77538422     0.14100
F2539       F  0.87048408  0.30382808  0.73447567    -0.13200
F2540       F  0.82389079  0.27067395  0.84634370    -0.13700
F2541       F  0.86816487  0.31467929  0.81968625    -0.16000
F2542       F  0.82648518  0.25995138  0.76106342    -0.14500
F2543       F  0.87531864  0.25717508  0.72842268    -0.14500
F2544       F  0.83149838  0.27807207  0.59364653    -0.15900
C2545       C  0.77450736  0.22099617  0.55205437     0.14100
C2546       C  0.76301625  0.21412887  0.52021479     0.01100
C2547       C  0.76975266  0.20816865  0.47988317     0.16100
C2548       C  0.78769376  0.20993515  0.47050509     0.25500
C2549       C  0.79900463  0.21803152  0.50109319    -0.40900
C2550       C  0.79238937  0.22306749  0.54244423     0.32500
C2551       C  0.74387138  0.21599677  0.52618853     0.01100
F2552       F  0.75875850  0.20153844  0.44875676    -0.13200
F2553       F  0.80316841  0.23042039  0.57304011    -0.13700
C2554       C  0.73516885  0.22979641  0.50477521     0.16100
C2555       C  0.71732020  0.23283079  0.51231392     0.25500
C2556       C  0.70776340  0.22203552  0.54151879    -0.40800
C2557       C  0.71648619  0.20784448  0.56209565     0.32400
C2558       C  0.73446542  0.20494387  0.55464540     0.14100
F2559       F  0.74416918  0.24070525  0.47744572    -0.13200
F2560       F  0.70783026  0.19716152  0.59061638    -0.13700
F2561       F  0.70946191  0.24642968  0.49104605    -0.16000
F2562       F  0.74275434  0.19152489  0.57558952    -0.14500
F2563       F  0.76818576  0.22673014  0.59132216    -0.14500
F2564       F  0.79373699  0.20498224  0.43031434    -0.15900
C2565       C  0.86781242  0.16635750  0.63470771     0.14100
C2566       C  0.88423515  0.15786503  0.63162126     0.01100
C2567       C  0.89421996  0.15954990  0.59296742     0.16100
C2568       C  0.88859543  0.17071973  0.55945061     0.25500
C2569       C  0.87281100  0.18016231  0.56383262    -0.40900
C2570       C  0.86204899  0.17738149  0.60070651     0.32500
C2571       C  0.89282701  0.15049448  0.67105155     0.01100
F2572       F  0.91027858  0.15178521  0.58960366    -0.13200
F2573       F  0.84682173  0.18654683  0.60555109    -0.13700
C2574       C  0.89855971  0.13289471  0.67206072     0.16100
C2575       C  0.91039032  0.12729820  0.70459188     0.25500
C2576       C  0.91682582  0.13938750  0.73571634    -0.40800
C2577       C  0.91011580  0.15663646  0.73633929     0.32400
C2578       C  0.89817903  0.16211869  0.70439537     0.14100
F2579       F  0.89348372  0.12147429  0.64009970    -0.13200
F2580       F  0.91575773  0.16845410  0.76684514    -0.13700
F2581       F  0.91660200  0.11055032  0.70354087    -0.16000
F2582       F  0.89303260  0.17924151  0.70379779    -0.14500
F2583       F  0.85803520  0.16496255  0.67193159    -0.14500
F2584       F  0.89914661  0.17327856  0.52393030    -0.15900
C2585       C  0.92068871  0.17629080  0.37274629     0.14100
C2586       C  0.93714064  0.18467966  0.37108570     0.01100
C2587       C  0.93855799  0.20229973  0.38465358     0.16100
C2588       C  0.92395748  0.21105976  0.40222895     0.25500
C2589       C  0.90768281  0.20226170  0.40689206    -0.40900
C2590       C  0.90610662  0.18493266  0.39046659     0.32500
C2591       C  0.95298002  0.17459305  0.35822111     0.01100
F2592       F  0.95431459  0.21074718  0.38305593    -0.13200
F2593       F  0.89070195  0.17591103  0.39337925    -0.13700
C2594       C  0.96357646  0.18008584  0.32300106     0.16100
C2595       C  0.97856531  0.17045884  0.31131268     0.25500
C2596       C  0.98318271  0.15508013  0.33462833    -0.40800
C2597       C  0.97249480  0.14966922  0.37001633     0.32400
C2598       C  0.95761102  0.15937761  0.38174409     0.14100
F2599       F  0.95919883  0.19458366  0.29933242    -0.13200
F2600       F  0.97659185  0.13516578  0.39399215    -0.13700
F2601       F  0.98828151  0.17599882  0.27647297    -0.16000
F2602       F  0.94785226  0.15408532  0.41676706    -0.14500
F2603       F  0.91886799  0.15945856  0.35830598    -0.14500
F2604       F  0.92595774  0.22797910  0.41581861    -0.15900
C2605       C  0.91561120  0.30543165  0.46655773     0.14100
C2606       C  0.90874110  0.31727107  0.43577256     0.01100
C2607       C  0.89242785  0.31377783  0.41600185     0.16100
C2608       C  0.88311701  0.29845779  0.42644779     0.25500
C2609       C  0.88998727  0.28633209  0.45713656    -0.40900
C2610       C  0.90632432  0.29014419  0.47739334     0.32500
C2611       C  0.91917245  0.33259981  0.42156083     0.01100
F2612       F  0.88575778  0.32501258  0.38556097    -0.13200
F2613       F  0.91335090  0.27919470  0.50798018    -0.13700
C2614       C  0.93302911  0.33018417  0.39181909     0.16100
C2615       C  0.94199733  0.34466575  0.37465940     0.25500
C2616       C  0.93720746  0.36197935  0.38690182    -0.40800
C2617       C  0.92378617  0.36424331  0.41860324     0.32400
C2618       C  0.91479758  0.34963840  0.43555329     0.14100
F2619       F  0.93741864  0.31374465  0.37804916    -0.13200
F2620       F  0.91883573  0.38055861  0.43203029    -0.13700
F2621       F  0.95509777  0.34162946  0.34519565    -0.16000
F2622       F  0.90156100  0.35211970  0.46494765    -0.14500
F2623       F  0.93139166  0.30867809  0.48599397    -0.14500
F2624       F  0.86756518  0.29539512  0.40572889    -0.15900
loop_ 
_geom_bond_atom_site_label_1 
_geom_bond_atom_site_label_2 
_geom_bond_distance 
_geom_bond_site_symmetry_2 
_ccdc_geom_bond_type 
Fe1          O17   2.059       .  S
Fe1           O7   2.075       .  S
Fe1          O14   2.064       .  S
Fe1           O6   2.055       .  S
Fe1          O12   1.960       .  S
Fe2           O5   2.057       .  S
Fe2           O9   2.065       .  S
Fe2          O13   2.058       .  S
Fe2          O18   2.067       .  S
Fe2          O12   1.958       .  S
Fe3          O21   2.071       .  S
Fe3           O8   2.064       .  S
Fe3          O15   2.051       .  S
Fe3           O4   2.067       .  S
Fe3          O12   1.966       .  S
O4           C11   1.267       .  A
O5           C19   1.268       .  A
O6           C11   1.266       .  A
O7           C10   1.272       .  A
O8           C20   1.268       .  A
O9           C22   1.268       .  A
C10          O15   1.269       .  A
C10        C2516   1.482       .  S
C11        C2549   1.472       .  S
O13          C16   1.271       .  A
O14          C16   1.271       .  A
C16        C2529   1.486       .  S
O17          C22   1.267       .  A
O18          C20   1.270       .  A
C19          O21   1.270       .  A
C19        C2589   1.486       .  S
C20        C2569   1.465       .  S
C22        C2609   1.488       .  S
Fe23         O39   2.060       .  S
Fe23         O29   2.051       .  S
Fe23         O36   2.060       .  S
Fe23         O28   2.048       .  S
Fe23         O34   1.970       .  S
Fe24         O27   2.055       .  S
Fe24         O31   2.061       .  S
Fe24         O35   2.048       .  S
Fe24         O40   2.054       .  S
Fe24         O34   1.966       .  S
Fe25         O43   2.065       .  S
Fe25         O30   2.067       .  S
Fe25         O37   2.065       .  S
Fe25         O26   2.068       .  S
Fe25         O34   1.978       .  S
O26          C33   1.267       .  A
O27          C41   1.266       .  A
O28          C33   1.265       .  A
O29          C32   1.269       .  A
O30          C42   1.270       .  A
O31          C44   1.266       .  A
C32          O37   1.272       .  A
C32        C2429   1.479       .  S
C33        C2556   1.483       .  S
O35          C38   1.267       .  A
O36          C38   1.268       .  A
C38        C2416   1.478       .  S
O39          C44   1.267       .  A
O40          C42   1.269       .  A
C41          O43   1.268       .  A
C41        C2476   1.474       .  S
C42        C2456   1.472       .  S
C44        C2496   1.481       .  S
Fe45         O61   2.056   1_556  S
Fe45         O51   2.048       .  S
Fe45         O58   2.073       .  S
Fe45         O50   2.054       .  S
Fe45         O56   1.973       .  S
Fe46         O49   2.052       .  S
Fe46         O53   2.056       .  S
Fe46         O57   2.060   1_554  S
Fe46         O62   2.049   1_554  S
Fe46         O56   1.960   1_554  S
Fe47         O65   2.076   1_556  S
Fe47         O52   2.074       .  S
Fe47         O59   2.070       .  S
Fe47         O48   2.069       .  S
Fe47         O56   1.981       .  S
O48          C55   1.272       .  A
O49          C63   1.270       .  A
O50          C55   1.270       .  A
O51          C54   1.265       .  A
O52          C64   1.269       .  A
O53          C66   1.266       .  A
C54          O59   1.267       .  A
C54        C2329   1.472       .  S
C55        C2536   1.473       .  S
O57          C60   1.267       .  A
O58          C60   1.270       .  A
C60        C2349   1.472       .  S
O61          C66   1.265       .  A
O62          C64   1.264       .  A
C63          O65   1.273       .  A
C63        C2369   1.478       .  S
C64        C2389   1.488       .  S
C66        C2509   1.483       .  S
Fe67         O83   2.055   1_554  S
Fe67         O73   2.051       .  S
Fe67         O80   2.065       .  S
Fe67         O72   2.049       .  S
Fe67         O78   1.979       .  S
Fe68         O71   2.057   1_554  S
Fe68         O75   2.048   1_554  S
Fe68         O79   2.065       .  S
Fe68         O84   2.047       .  S
Fe68         O78   1.971       .  S
Fe69         O87   2.077       .  S
Fe69         O74   2.066       .  S
Fe69         O81   2.067       .  S
Fe69         O70   2.064       .  S
Fe69         O78   1.988       .  S
O70          C77   1.270       .  A
O71          C85   1.269       .  A
O72          C77   1.267       .  A
O73          C76   1.267       .  A
O74          C86   1.269       .  A
O75          C88   1.266       .  A
C76          O81   1.268       .  A
C76        C2336   1.475       .  S
C77        C2409   1.476       .  S
O79          C82   1.268       .  A
O80          C82   1.268       .  A
C82        C2269   1.492       .  S
O83          C88   1.266       .  A
O84          C86   1.266       .  A
C85          O87   1.270   1_556  A
C85        C2289   1.480       .  S
C86        C2316   1.478       .  S
C88        C2436   1.474       .  S
Fe89        O105   2.057       .  S
Fe89         O95   2.058       .  S
Fe89        O102   2.081       .  S
Fe89         O94   2.052       .  S
Fe89        O100   1.972       .  S
Fe90         O93   2.056       .  S
Fe90         O97   2.062       .  S
Fe90        O101   2.064       .  S
Fe90        O106   2.051       .  S
Fe90        O100   1.960       .  S
Fe91        O109   2.090       .  S
Fe91         O96   2.071       .  S
Fe91        O103   2.077       .  S
Fe91         O92   2.088       .  S
Fe91        O100   1.975       .  S
O92          C99   1.276       .  A
O93         C107   1.270       .  A
O94          C99   1.270       .  A
O95          C98   1.267       .  A
O96         C108   1.269       .  A
O97         C110   1.269       .  A
C98         O103   1.268       .  A
C98        C2249   1.483       .  S
C99        C2216   1.478       .  S
O101        C104   1.267       .  A
O102        C104   1.269       .  A
C104       C2189   1.478       .  S
O105        C110   1.268       .  A
O106        C108   1.265       .  A
C107        O109   1.274       .  A
C107       C2296   1.487       .  S
C108       C2489   1.490       .  S
C110       C2229   1.481       .  S
Fe111       O127   2.054       .  S
Fe111       O117   2.054       .  S
Fe111       O124   2.067       .  S
Fe111       O116   2.039       .  S
Fe111       O122   1.972       .  S
Fe112       O115   2.054       .  S
Fe112       O119   2.059       .  S
Fe112       O123   2.065       .  S
Fe112       O128   2.059       .  S
Fe112       O122   1.967       .  S
Fe113       O131   2.070       .  S
Fe113       O118   2.075       .  S
Fe113       O125   2.079       .  S
Fe113       O114   2.079       .  S
Fe113       O122   1.981       .  S
O114        C121   1.272       .  A
O115        C129   1.270       .  A
O116        C121   1.266       .  A
O117        C120   1.266       .  A
O118        C130   1.271       .  A
O119        C132   1.268       .  A
C120        O125   1.270       .  A
C120       C2256   1.484       .  S
C121       C2149   1.486       .  S
O123        C126   1.269       .  A
O124        C126   1.269       .  A
C126       C2136   1.488       .  S
O127        C132   1.266       .  A
O128        C130   1.267       .  A
C129        O131   1.271       .  A
C129       C2116   1.477       .  S
C130       C2089   1.494       .  S
C132       C2169   1.482       .  S
Fe133       O149   2.057       .  S
Fe133       O139   2.070       .  S
Fe133       O146   2.071       .  S
Fe133       O138   2.053       .  S
Fe133       O144   1.949       .  S
Fe134       O137   2.066       .  S
Fe134       O141   2.066       .  S
Fe134       O145   2.071       .  S
Fe134       O150   2.063       .  S
Fe134       O144   1.947       .  S
Fe135       O153   2.088       .  S
Fe135       O140   2.065       .  S
Fe135       O147   2.056       .  S
Fe135       O136   2.087       .  S
Fe135       O144   1.956       .  S
O136        C143   1.272       .  A
O137        C151   1.269       .  A
O138        C143   1.267       .  A
O139        C142   1.271       .  A
O140        C152   1.269       .  A
O141        C154   1.269       .  A
C142        O147   1.270       .  A
C142       C2236   1.486       .  S
C143       C2076   1.476       .  S
O145        C148   1.272       .  A
O146        C148   1.270       .  A
C148       C2209   1.482       .  S
O149        C154   1.267       .  A
O150        C152   1.270       .  A
C151        O153   1.274       .  A
C151       C2029   1.482       .  S
C152       C2056   1.467       .  S
C154       C2309   1.484       .  S
Fe155       O171   2.066       .  S
Fe155       O161   2.066       .  S
Fe155       O168   2.075       .  S
Fe155       O160   2.052       .  S
Fe155       O166   1.958       .  S
Fe156       O159   2.046       .  S
Fe156       O163   2.066       .  S
Fe156       O167   2.048       .  S
Fe156       O172   2.067       .  S
Fe156       O166   1.951       .  S
Fe157       O175   2.097       .  S
Fe157       O162   2.070       .  S
Fe157       O169   2.061       .  S
Fe157       O158   2.089       .  S
Fe157       O166   1.965       .  S
O158        C165   1.272       .  A
O159        C173   1.267       .  A
O160        C165   1.267       .  A
O161        C164   1.272       .  A
O162        C174   1.269       .  A
O163        C176   1.267       .  A
C164        O169   1.271       .  A
C164       C2176   1.483       .  S
C165       C2069   1.490       .  S
O167        C170   1.270       .  A
O168        C170   1.273       .  A
C170       C2156   1.479       .  S
O171        C176   1.267       .  A
O172        C174   1.269       .  A
C173        O175   1.276       .  A
C173       C1996   1.480       .  S
C174       C2009   1.473       .  S
C176       C1969   1.492       .  S
Fe177       O193   2.066       .  S
Fe177       O183   2.059       .  S
Fe177       O190   2.061   1_556  S
Fe177       O182   2.058       .  S
Fe177       O188   1.966       .  S
Fe178       O181   2.060   1_554  S
Fe178       O185   2.074   1_554  S
Fe178       O189   2.063       .  S
Fe178       O194   2.070       .  S
Fe178       O188   1.965   1_554  S
Fe179       O197   2.074       .  S
Fe179       O184   2.067   1_556  S
Fe179       O191   2.056       .  S
Fe179       O180   2.070       .  S
Fe179       O188   1.973       .  S
O180        C187   1.268       .  A
O181        C195   1.269       .  A
O182        C187   1.268       .  A
O183        C186   1.269       .  A
O184        C196   1.268       .  A
O185        C198   1.269       .  A
C186        O191   1.270       .  A
C186       C1909   1.483       .  S
C187       C1949   1.481       .  S
O189        C192   1.271       .  A
O190        C192   1.269       .  A
C192       C1929   1.486       .  S
O193        C198   1.268       .  A
O194        C196   1.270       .  A
C195        O197   1.271       .  A
C195       C2129   1.492       .  S
C196       C2016   1.469       .  S
C198       C1889   1.489       .  S
Fe199       O215   2.059       .  S
Fe199       O205   2.065       .  S
Fe199       O212   2.069       .  S
Fe199       O204   2.045       .  S
Fe199       O210   1.971       .  S
Fe200       O203   2.051       .  S
Fe200       O207   2.069       .  S
Fe200       O211   2.051   1_554  S
Fe200       O216   2.058   1_554  S
Fe200       O210   1.968       .  S
Fe201       O219   2.078       .  S
Fe201       O206   2.054       .  S
Fe201       O213   2.056       .  S
Fe201       O202   2.079       .  S
Fe201       O210   1.984       .  S
O202        C209   1.270       .  A
O203        C217   1.268       .  A
O204        C209   1.265       .  A
O205        C208   1.270       .  A
O206        C218   1.265   1_554  A
O207        C220   1.267       .  A
C208        O213   1.268       .  A
C208       C1876   1.479       .  S
C209       C1956   1.490       .  S
O211        C214   1.268       .  A
O212        C214   1.270   1_554  A
C214       C1856   1.488       .  S
O215        C220   1.267       .  A
O216        C218   1.268       .  A
C217        O219   1.273       .  A
C217       C1829   1.477       .  S
C218       C1809   1.468       .  S
C220       C1789   1.494       .  S
Fe221       O237   2.043       .  S
Fe221       O227   2.061       .  S
Fe221       O234   2.074       .  S
Fe221       O226   2.035       .  S
Fe221       O232   1.954       .  S
Fe222       O225   2.054       .  S
Fe222       O229   2.079       .  S
Fe222       O233   2.067       .  S
Fe222       O238   2.063       .  S
Fe222       O232   1.951       .  S
Fe223       O241   2.079       .  S
Fe223       O228   2.070       .  S
Fe223       O235   2.070       .  S
Fe223       O224   2.091       .  S
Fe223       O232   1.962       .  S
O224        C231   1.277       .  A
O225        C239   1.271       .  A
O226        C231   1.268       .  A
O227        C230   1.266       .  A
O228        C240   1.270       .  A
O229        C242   1.273       .  A
C230        O235   1.266       .  A
C230       C1769   1.471       .  S
C231       C1936   1.481       .  S
O233        C236   1.268       .  A
O234        C236   1.269       .  A
C236       C1989   1.478       .  S
O237        C242   1.267       .  A
O238        C240   1.269       .  A
C239        O241   1.273       .  A
C239       C1736   1.481       .  S
C240       C1749   1.493       .  S
C242       C1916   1.476       .  S
Fe243       O259   2.057       .  S
Fe243       O249   2.064       .  S
Fe243       O256   2.074       .  S
Fe243       O248   2.050       .  S
Fe243       O254   1.970       .  S
Fe244       O247   2.049       .  S
Fe244       O251   2.064       .  S
Fe244       O255   2.055       .  S
Fe244       O260   2.063       .  S
Fe244       O254   1.963       .  S
Fe245       O263   2.072       .  S
Fe245       O250   2.063       .  S
Fe245       O257   2.067       .  S
Fe245       O246   2.069       .  S
Fe245       O254   1.977       .  S
O246        C253   1.270       .  A
O247        C261   1.267       .  A
O248        C253   1.268       .  A
O249        C252   1.269       .  A
O250        C262   1.269       .  A
O251        C264   1.270       .  A
C252        O257   1.269       .  A
C252       C1776   1.492       .  S
C253       C1849   1.476       .  S
O255        C258   1.266       .  A
O256        C258   1.270       .  A
C258       C1716   1.492       .  S
O259        C264   1.268       .  A
O260        C262   1.269       .  A
C261        O263   1.269       .  A
C261       C1669   1.476       .  S
C262       C1689   1.484       .  S
C264       C1869   1.486       .  S
Fe265       O281   2.061       .  S
Fe265       O271   2.045       .  S
Fe265       O278   2.057       .  S
Fe265       O270   2.046       .  S
Fe265       O276   1.969       .  S
Fe266       O269   2.056       .  S
Fe266       O273   2.069       .  S
Fe266       O277   2.060       .  S
Fe266       O282   2.057       .  S
Fe266       O276   1.965       .  S
Fe267       O285   2.079       .  S
Fe267       O272   2.074       .  S
Fe267       O279   2.077       .  S
Fe267       O268   2.081       .  S
Fe267       O276   1.981       .  S
O268        C275   1.270       .  A
O269        C283   1.266       .  A
O270        C275   1.265       .  A
O271        C274   1.268       .  A
O272        C284   1.272       .  A
O273        C286   1.270       .  A
C274        O279   1.273       .  A
C274       C1569   1.479       .  S
C275       C1609   1.484       .  S
O277        C280   1.268       .  A
O278        C280   1.267       .  A
C280       C1596   1.483       .  S
O281        C286   1.267       .  A
O282        C284   1.271       .  A
C283        O285   1.271       .  A
C283       C1636   1.493       .  S
C284       C1649   1.476       .  S
C286       C2396   1.492   1_455  S
Fe287       O303   2.062   1_455  S
Fe287       O293   2.047       .  S
Fe287       O300   2.054       .  S
Fe287       O292   2.061       .  S
Fe287       O298   1.966       .  S
Fe288       O291   2.070       .  S
Fe288       O295   2.057       .  S
Fe288       O299   2.064       .  S
Fe288       O304   2.057       .  S
Fe288       O298   1.969       .  S
Fe289       O307   2.063       .  S
Fe289       O294   2.062       .  S
Fe289       O301   2.069       .  S
Fe289       O290   2.067       .  S
Fe289       O298   1.974       .  S
O290        C297   1.268       .  A
O291        C305   1.270       .  A
O292        C297   1.269       .  A
O293        C296   1.267       .  A
O294        C306   1.268       .  A
O295        C308   1.268       .  A
C296        O301   1.269       .  A
C296       C1529   1.478       .  S
C297       C1616   1.477       .  S
O299        C302   1.269       .  A
O300        C302   1.267       .  A
C302       C1556   1.481       .  S
O303        C308   1.269   1_655  A
O304        C306   1.269       .  A
C305        O307   1.269       .  A
C305       C1709   1.492       .  S
C306       C1816   1.477       .  S
C308       C1509   1.477   1_455  S
Fe309       O325   2.053       .  S
Fe309       O315   2.060       .  S
Fe309       O322   2.072   1_655  S
Fe309       O314   2.044       .  S
Fe309       O320   1.965       .  S
Fe310       O313   2.051       .  S
Fe310       O317   2.071       .  S
Fe310       O321   2.060       .  S
Fe310       O326   2.057       .  S
Fe310       O320   1.954       .  S
Fe311       O329   2.082       .  S
Fe311       O316   2.069       .  S
Fe311       O323   2.067       .  S
Fe311       O312   2.083       .  S
Fe311       O320   1.967       .  S
O312        C319   1.275       .  A
O313        C327   1.270       .  A
O314        C319   1.269       .  A
O315        C318   1.266       .  A
O316        C328   1.269       .  A
O317        C330   1.270       .  A
C318        O323   1.267       .  A
C318       C1476   1.468       .  S
C319       C1589   1.478       .  S
O321        C324   1.267   1_655  A
O322        C324   1.268       .  A
C324       C1496   1.470       .  S
O325        C330   1.268       .  A
O326        C328   1.267       .  A
C327        O329   1.273       .  A
C327       C2376   1.481       .  S
C328       C2616   1.489       .  S
C330       C1576   1.477       .  S
Fe331       O347   2.066       .  S
Fe331       O337   2.056       .  S
Fe331       O344   2.064   1_655  S
Fe331       O336   2.056       .  S
Fe331       O342   1.977       .  S
Fe332       O335   2.063       .  S
Fe332       O339   2.056       .  S
Fe332       O343   2.062       .  S
Fe332       O348   2.055       .  S
Fe332       O342   1.966       .  S
Fe333       O351   2.058       .  S
Fe333       O338   2.075       .  S
Fe333       O345   2.067       .  S
Fe333       O334   2.064       .  S
Fe333       O342   1.979       .  S
O334        C341   1.270       .  A
O335        C349   1.270       .  A
O336        C341   1.271       .  A
O337        C340   1.266       .  A
O338        C350   1.270       .  A
O339        C352   1.269       .  A
C340        O345   1.267       .  A
C340       C1469   1.473       .  S
C341       C1549   1.481       .  S
O343        C346   1.266   1_655  A
O344        C346   1.266       .  A
C346       C1836   1.468       .  S
O347        C352   1.270       .  A
O348        C350   1.266       .  A
C349        O351   1.267       .  A
C349       C1456   1.476       .  S
C350       C1436   1.481       .  S
C352       C1536   1.478   1_655  S
Fe353       O369   2.057       .  S
Fe353       O359   2.054       .  S
Fe353       O366   2.056       .  S
Fe353       O358   2.046       .  S
Fe353       O364   1.972       .  S
Fe354       O357   2.052       .  S
Fe354       O361   2.065       .  S
Fe354       O365   2.049       .  S
Fe354       O370   2.058       .  S
Fe354       O364   1.968       .  S
Fe355       O373   2.076       .  S
Fe355       O360   2.069       .  S
Fe355       O367   2.067       .  S
Fe355       O356   2.078       .  S
Fe355       O364   1.981       .  S
O356        C363   1.271       .  A
O357        C371   1.266       .  A
O358        C363   1.266       .  A
O359        C362   1.266       .  A
O360        C372   1.270       .  A
O361        C374   1.270       .  A
C362        O367   1.269       .  A
C362       C1376   1.489       .  S
C363       C1409   1.474       .  S
O365        C368   1.264       .  A
O366        C368   1.264       .  A
C368       C1389   1.480       .  S
O369        C374   1.269       .  A
O370        C372   1.270       .  A
C371        O373   1.271       .  A
C371       C2276   1.492       .  S
C372       C2449   1.474       .  S
C374       C1356   1.484       .  S
Fe375       O391   2.065       .  S
Fe375       O381   2.067       .  S
Fe375       O388   2.068       .  S
Fe375       O380   2.046       .  S
Fe375       O386   1.979       .  S
Fe376       O379   2.051       .  S
Fe376       O383   2.063       .  S
Fe376       O387   2.045       .  S
Fe376       O392   2.054       .  S
Fe376       O386   1.970       .  S
Fe377       O395   2.072       .  S
Fe377       O382   2.065       .  S
Fe377       O389   2.059       .  S
Fe377       O378   2.073       .  S
Fe377       O386   1.989       .  S
O378        C385   1.268       .  A
O379        C393   1.267       .  A
O380        C385   1.265       .  A
O381        C384   1.270       .  A
O382        C394   1.268       .  A
O383        C396   1.268       .  A
C384        O389   1.269       .  A
C384       C1329   1.480       .  S
C385       C1416   1.470       .  S
O387        C390   1.265       .  A
O388        C390   1.268       .  A
C390       C1309   1.479       .  S
O391        C396   1.269       .  A
O392        C394   1.268       .  A
C393        O395   1.270       .  A
C393       C1276   1.487       .  S
C394       C1296   1.472       .  S
C396       C1756   1.490       .  S
Fe397       O413   2.062       .  S
Fe397       O403   2.047       .  S
Fe397       O410   2.067       .  S
Fe397       O402   2.054       .  S
Fe397       O408   1.973       .  S
Fe398       O401   2.056       .  S
Fe398       O405   2.069       .  S
Fe398       O409   2.056       .  S
Fe398       O414   2.063       .  S
Fe398       O408   1.962       .  S
Fe399       O417   2.068       .  S
Fe399       O404   2.067       .  S
Fe399       O411   2.070       .  S
Fe399       O400   2.066       .  S
Fe399       O408   1.972       .  S
O400        C407   1.271       .  A
O401        C415   1.270       .  A
O402        C407   1.271       .  A
O403        C406   1.264       .  A
O404        C416   1.269       .  A
O405        C418   1.271       .  A
C406        O411   1.267       .  A
C406       C1249   1.477       .  S
C407       C1396   1.465       .  S
O409        C412   1.265       .  A
O410        C412   1.267       .  A
C412       C2469   1.469       .  S
O413        C418   1.269       .  A
O414        C416   1.268       .  A
C415        O417   1.271       .  A
C415       C1229   1.479       .  S
C416       C1216   1.487       .  S
C418       C1369   1.485       .  S
Fe419       O435   2.058       .  S
Fe419       O425   2.057       .  S
Fe419       O432   2.077       .  S
Fe419       O424   2.056       .  S
Fe419       O430   1.969       .  S
Fe420       O423   2.058       .  S
Fe420       O427   2.069       .  S
Fe420       O431   2.064       .  S
Fe420       O436   2.063       .  S
Fe420       O430   1.957       .  S
Fe421       O439   2.066       .  S
Fe421       O426   2.077       .  S
Fe421       O433   2.066       .  S
Fe421       O422   2.066       .  S
Fe421       O430   1.972       .  S
O422        C429   1.270       .  A
O423        C437   1.270       .  A
O424        C429   1.270       .  A
O425        C428   1.268       .  A
O426        C438   1.271       .  A
O427        C440   1.270       .  A
C428        O433   1.268       .  A
C428       C1256   1.482       .  S
C429       C1316   1.476       .  S
O431        C434   1.268       .  A
O432        C434   1.270       .  A
C434       C1189   1.472       .  S
O435        C440   1.267       .  A
O436        C438   1.269       .  A
C437        O439   1.269       .  A
C437       C1729   1.480       .  S
C438       C1896   1.491       .  S
C440       C1336   1.488       .  S
Fe441       O457   2.061       .  S
Fe441       O447   2.072       .  S
Fe441       O454   2.071       .  S
Fe441       O446   2.051       .  S
Fe441       O452   1.963       .  S
Fe442       O445   2.049       .  S
Fe442       O449   2.073       .  S
Fe442       O453   2.045   1_554  S
Fe442       O458   2.065   1_554  S
Fe442       O452   1.964       .  S
Fe443       O461   2.070       .  S
Fe443       O448   2.057       .  S
Fe443       O455   2.049       .  S
Fe443       O444   2.077       .  S
Fe443       O452   1.974       .  S
O444        C451   1.270       .  A
O445        C459   1.266       .  A
O446        C451   1.266       .  A
O447        C450   1.271       .  A
O448        C460   1.268   1_554  A
O449        C462   1.270       .  A
C450        O455   1.267       .  A
C450       C1089   1.486       .  S
C451       C1136   1.471       .  S
O453        C456   1.266       .  A
O454        C456   1.269   1_554  A
C456       C1116   1.475       .  S
O457        C462   1.269       .  A
O458        C460   1.271       .  A
C459        O461   1.270       .  A
C459       C1169   1.482       .  S
C460       C1149   1.469       .  S
C462       C1429   1.486       .  S
Fe463       O479   2.067       .  S
Fe463       O469   2.067       .  S
Fe463       O476   2.072   1_556  S
Fe463       O468   2.058       .  S
Fe463       O474   1.976       .  S
Fe464       O467   2.059   1_554  S
Fe464       O471   2.061   1_554  S
Fe464       O475   2.058       .  S
Fe464       O480   2.056       .  S
Fe464       O474   1.968   1_554  S
Fe465       O483   2.072       .  S
Fe465       O470   2.062   1_556  S
Fe465       O477   2.054       .  S
Fe465       O466   2.071       .  S
Fe465       O474   1.982       .  S
O466        C473   1.268       .  A
O467        C481   1.267       .  A
O468        C473   1.267       .  A
O469        C472   1.271       .  A
O470        C482   1.269       .  A
O471        C484   1.267       .  A
C472        O477   1.269       .  A
C472       C1076   1.486       .  S
C473       C1129   1.482   1_556  S
O475        C478   1.269       .  A
O476        C478   1.271       .  A
C478       C1049   1.491       .  S
O479        C484   1.268       .  A
O480        C482   1.269       .  A
C481        O483   1.270       .  A
C481       C1196   1.485       .  S
C482       C1289   1.472       .  S
C484       C2096   1.490       .  S
Fe485       O501   2.058       .  S
Fe485       O491   2.055       .  S
Fe485       O498   2.063       .  S
Fe485       O490   2.052       .  S
Fe485       O496   1.974       .  S
Fe486       O489   2.052       .  S
Fe486       O493   2.063       .  S
Fe486       O497   2.055       .  S
Fe486       O502   2.056       .  S
Fe486       O496   1.972       .  S
Fe487       O505   2.067       .  S
Fe487       O492   2.061       .  S
Fe487       O499   2.068       .  S
Fe487       O488   2.064       .  S
Fe487       O496   1.981       .  S
O488        C495   1.269       .  A
O489        C503   1.268       .  A
O490        C495   1.267       .  A
O491        C494   1.267       .  A
O492        C504   1.268       .  A
O493        C506   1.269       .  A
C494        O499   1.268       .  A
C494       C1009   1.484       .  S
C495       C1109   1.475       .  S
O497        C500   1.265       .  A
O498        C500   1.267       .  A
C500       C1029   1.485       .  S
O501        C506   1.268       .  A
O502        C504   1.267       .  A
C503        O505   1.269       .  A
C503       C1449   1.482       .  S
C504       C1516   1.483       .  S
C506       C1096   1.479       .  S
Fe507       O523   2.074       .  S
Fe507       O513   2.033       .  S
Fe507       O520   2.043       .  S
Fe507       O512   2.073       .  S
Fe507       O518   1.965       .  S
Fe508       O511   2.071       .  S
Fe508       O515   2.046       .  S
Fe508       O519   2.078       .  S
Fe508       O524   2.053       .  S
Fe508       O518   1.962       .  S
Fe509       O527   2.057       .  S
Fe509       O514   2.085       .  S
Fe509       O521   2.091       .  S
Fe509       O510   2.056       .  S
Fe509       O518   1.973       .  S
O510        C517   1.269       .  A
O511        C525   1.272       .  A
O512        C517   1.272       .  A
O513        C516   1.262       .  A
O514        C526   1.273       .  A
O515        C528   1.267       .  A
C516        O521   1.272       .  A
C516       C1016   1.485       .  S
C517       C1056   1.478       .  S
O519        C522   1.270       .  A
O520        C522   1.264       .  A
C522       C1269   1.486       .  S
O523        C528   1.270       .  A
O524        C526   1.267       .  A
C525        O527   1.268       .  A
C525       C2109   1.476       .  S
C526       C1976   1.493       .  S
C528       C1069   1.487       .  S
Fe529       O545   2.052       .  S
Fe529       O535   2.064       .  S
Fe529       O542   2.060       .  S
Fe529       O534   2.046       .  S
Fe529       O540   1.954       .  S
Fe530       O533   2.063       .  S
Fe530       O537   2.085       .  S
Fe530       O541   2.061       .  S
Fe530       O546   2.079       .  S
Fe530       O540   1.954       .  S
Fe531       O549   2.091       .  S
Fe531       O536   2.058       .  S
Fe531       O543   2.052       .  S
Fe531       O532   2.088       .  S
Fe531       O540   1.962       .  S
O532        C539   1.271       .  A
O533        C547   1.269       .  A
O534        C539   1.264       .  A
O535        C538   1.272       .  A
O536        C548   1.269       .  A
O537        C550   1.272       .  A
C538        O543   1.271       .  A
C538        C949   1.475       .  S
C539        C996   1.483       .  S
O541        C544   1.271       .  A
O542        C544   1.269       .  A
C544        C976   1.485       .  S
O545        C550   1.266       .  A
O546        C548   1.274       .  A
C547        O549   1.273       .  A
C547       C2196   1.490       .  S
C548       C2049   1.464       .  S
C550       C1209   1.494       .  S
Fe551       O567   2.063       .  S
Fe551       O557   2.066       .  S
Fe551       O564   2.068       .  S
Fe551       O556   2.056       .  S
Fe551       O562   1.973       .  S
Fe552       O555   2.048       .  S
Fe552       O559   2.071       .  S
Fe552       O563   2.048       .  S
Fe552       O568   2.067       .  S
Fe552       O562   1.968       .  S
Fe553       O571   2.075       .  S
Fe553       O558   2.063       .  S
Fe553       O565   2.057       .  S
Fe553       O554   2.076       .  S
Fe553       O562   1.982       .  S
O554        C561   1.270       .  A
O555        C569   1.265       .  A
O556        C561   1.267       .  A
O557        C560   1.270       .  A
O558        C570   1.269       .  A
O559        C572   1.269       .  A
C560        O565   1.269       .  A
C560        C936   1.482       .  S
C561        C989   1.477       .  S
O563        C566   1.266       .  A
O564        C566   1.268       .  A
C566        C909   1.483       .  S
O567        C572   1.269       .  A
O568        C570   1.272       .  A
C569        O571   1.269       .  A
C569       C1489   1.475       .  S
C570       C1656   1.474       .  S
C572        C896   1.493       .  S
Fe573       O589   2.045   1_554  S
Fe573       O579   2.077       .  S
Fe573       O586   2.091       .  S
Fe573       O578   2.037       .  S
Fe573       O584   1.950       .  S
Fe574       O577   2.053   1_554  S
Fe574       O581   2.072   1_554  S
Fe574       O585   2.058       .  S
Fe574       O590   2.062       .  S
Fe574       O584   1.949       .  S
Fe575       O593   2.081       .  S
Fe575       O580   2.059       .  S
Fe575       O587   2.063       .  S
Fe575       O576   2.085       .  S
Fe575       O584   1.957       .  S
O576        C583   1.275       .  A
O577        C591   1.271       .  A
O578        C583   1.268       .  A
O579        C582   1.271       .  A
O580        C592   1.268       .  A
O581        C594   1.270       .  A
C582        O587   1.267       .  A
C582        C869   1.482       .  S
C583        C969   1.477       .  S
O585        C588   1.268       .  A
O586        C588   1.274       .  A
C588       C2036   1.484       .  S
O589        C594   1.265       .  A
O590        C592   1.268       .  A
C591        O593   1.273   1_556  A
C591       C1236   1.482       .  S
C592       C1349   1.479       .  S
C594        C956   1.464       .  S
Fe595       O611   2.059   1_556  S
Fe595       O601   2.061       .  S
Fe595       O608   2.069       .  S
Fe595       O600   2.045       .  S
Fe595       O606   1.971       .  S
Fe596       O599   2.056       .  S
Fe596       O603   2.064       .  S
Fe596       O607   2.067   1_554  S
Fe596       O612   2.064   1_554  S
Fe596       O606   1.967   1_554  S
Fe597       O615   2.069   1_556  S
Fe597       O602   2.065       .  S
Fe597       O609   2.069       .  S
Fe597       O598   2.077       .  S
Fe597       O606   1.975       .  S
O598        C605   1.274       .  A
O599        C613   1.270       .  A
O600        C605   1.269       .  A
O601        C604   1.265       .  A
O602        C614   1.268       .  A
O603        C616   1.270       .  A
C604        O609   1.265       .  A
C604        C876   1.472       .  S
C605        C916   1.478       .  S
O607        C610   1.268       .  A
O608        C610   1.268       .  A
C610       C1629   1.489       .  S
O611        C616   1.269       .  A
O612        C614   1.268       .  A
C613        O615   1.271       .  A
C613        C836   1.480       .  S
C614        C849   1.491       .  S
C616        C929   1.486       .  S
Fe617       O633   2.057   1_655  S
Fe617       O623   2.069       .  S
Fe617       O630   2.075       .  S
Fe617       O622   2.042       .  S
Fe617       O628   1.949       .  S
Fe618       O621   2.050       .  S
Fe618       O625   2.074       .  S
Fe618       O629   2.050       .  S
Fe618       O634   2.069       .  S
Fe618       O628   1.948       .  S
Fe619       O637   2.095       .  S
Fe619       O624   2.064       .  S
Fe619       O631   2.050       .  S
Fe619       O620   2.093       .  S
Fe619       O628   1.959       .  S
O620        C627   1.272       .  A
O621        C635   1.268       .  A
O622        C627   1.264       .  A
O623        C626   1.273       .  A
O624        C636   1.269       .  A
O625        C638   1.268   1_655  A
C626        O631   1.270       .  A
C626        C769   1.482       .  S
C627        C809   1.482       .  S
O629        C632   1.270       .  A
O630        C632   1.273       .  A
C632        C789   1.485       .  S
O633        C638   1.265       .  A
O634        C636   1.271       .  A
C635        O637   1.276       .  A
C635       C2356   1.481       .  S
C636       C2576   1.472       .  S
C638        C856   1.490       .  S
Fe639       O655   2.070   1_655  S
Fe639       O645   2.078       .  S
Fe639       O652   2.081   1_655  S
Fe639       O644   2.060       .  S
Fe639       O650   1.966       .  S
Fe640       O643   2.047       .  S
Fe640       O647   2.063   1_655  S
Fe640       O651   2.040       .  S
Fe640       O656   2.062       .  S
Fe640       O650   1.955       .  S
Fe641       O659   2.078       .  S
Fe641       O646   2.057       .  S
Fe641       O653   2.053       .  S
Fe641       O642   2.078       .  S
Fe641       O650   1.971       .  S
O642        C649   1.271       .  A
O643        C657   1.266       .  A
O644        C649   1.269       .  A
O645        C648   1.272       .  A
O646        C658   1.267       .  A
O647        C660   1.268       .  A
C648        O653   1.267       .  A
C648        C749   1.483       .  S
C649        C816   1.479       .  S
O651        C654   1.266   1_655  A
O652        C654   1.271       .  A
C654        C736   1.484       .  S
O655        C660   1.271       .  A
O656        C658   1.269       .  A
C657        O659   1.272       .  A
C657       C1036   1.486       .  S
C658       C1156   1.470       .  S
C660       C1696   1.492       .  S
Fe661       O677   2.051       .  S
Fe661       O667   2.056       .  S
Fe661       O674   2.060   1_455  S
Fe661       O666   2.055       .  S
Fe661       O672   1.971       .  S
Fe662       O665   2.055       .  S
Fe662       O669   2.052       .  S
Fe662       O673   2.063       .  S
Fe662       O678   2.056       .  S
Fe662       O672   1.967       .  S
Fe663       O681   2.066       .  S
Fe663       O668   2.079       .  S
Fe663       O675   2.089       .  S
Fe663       O664   2.060       .  S
Fe663       O672   1.979       .  S
O664        C671   1.269       .  A
O665        C679   1.270       .  A
O666        C671   1.267       .  A
O667        C670   1.267       .  A
O668        C680   1.271       .  A
O669        C682   1.266       .  A
C670        O675   1.272       .  A
C670        C709   1.483       .  S
C671        C796   1.486       .  S
O673        C676   1.269   1_455  A
O674        C676   1.269       .  A
C676       C2596   1.483       .  S
O677        C682   1.265       .  A
O678        C680   1.266       .  A
C679        O681   1.270       .  A
C679        C829   1.470       .  S
C680        C889   1.495       .  S
C682        C776   1.479       .  S
Fe683       O699   2.081       .  S
Fe683       O689   2.046       .  S
Fe683       O696   2.057       .  S
Fe683       O688   2.071       .  S
Fe683       O694   1.972       .  S
Fe684       O687   2.050       .  S
Fe684       O691   2.048       .  S
Fe684       O695   2.057       .  S
Fe684       O700   2.051       .  S
Fe684       O694   1.965       .  S
Fe685       O703   2.066       .  S
Fe685       O690   2.092       .  S
Fe685       O697   2.098       .  S
Fe685       O686   2.055       .  S
Fe685       O694   1.980       .  S
O686        C693   1.266       .  A
O687        C701   1.266       .  A
O688        C693   1.270       .  A
O689        C692   1.267       .  A
O690        C702   1.276       .  A
O691        C704   1.268       .  A
C692        O697   1.275       .  A
C692        C716   1.482       .  S
C693        C729   1.484       .  S
O695        C698   1.266       .  A
O696        C698   1.266       .  A
C698       C1176   1.481   1_455  S
O699        C704   1.271       .  A
O700        C702   1.268       .  A
C701        O703   1.267       .  A
C701       C1676   1.475       .  S
C702       C1796   1.494       .  S
C704        C756   1.480       .  S
C705        C706   1.405       .  A
C705        C710   1.400       .  A
C705        F723   1.358       .  S
C706        C711   1.487       .  S
C706        C707   1.408       .  A
C707        C708   1.404       .  A
C707        F712   1.358       .  S
C708        C709   1.407       .  A
C708        F724   1.358       .  S
C709        C710   1.408       .  A
C710        F713   1.358       .  S
C711        C714   1.409       .  A
C711        C718   1.404   1_545  A
C714        C715   1.406   1_545  A
C714        F719   1.357       .  S
C715        C716   1.407       .  A
C715        F721   1.358       .  S
C716        C717   1.408       .  A
C717        C718   1.397       .  A
C717        F720   1.359       .  S
C718        F722   1.358   1_565  S
C725        C726   1.401   1_554  A
C725        C730   1.399       .  A
C725        F743   1.358   1_554  S
C726        C731   1.474       .  S
C726        C727   1.402   1_556  A
C727        C728   1.396       .  A
C727        F732   1.358       .  S
C728        C729   1.409       .  A
C728        F744   1.358       .  S
C729        C730   1.413       .  A
C730        F733   1.358       .  S
C731        C734   1.400       .  A
C731        C738   1.403       .  A
C734        C735   1.390       .  A
C734        F739   1.358       .  S
C735        C736   1.411       .  A
C735        F741   1.357   1_455  S
C736        C737   1.413       .  A
C737        C738   1.403       .  A
C737        F740   1.358       .  S
C738        F742   1.358       .  S
C745        C746   1.403       .  A
C745        C750   1.397       .  A
C745        F763   1.358   1_655  S
C746        C751   1.475       .  S
C746        C747   1.403       .  A
C747        C748   1.399       .  A
C747        F752   1.358       .  S
C748        C749   1.411       .  A
C748        F764   1.358       .  S
C749        C750   1.409       .  A
C750        F753   1.358   1_655  S
C751        C754   1.402   1_655  A
C751        C758   1.404       .  A
C754        C755   1.393       .  A
C754        F759   1.358       .  S
C755        C756   1.408       .  A
C755        F761   1.357       .  S
C756        C757   1.410   1_455  A
C757        C758   1.402       .  A
C757        F760   1.358       .  S
C758        F762   1.358       .  S
C765        C766   1.398       .  A
C765        C770   1.393   1_554  A
C765        F783   1.358   1_655  S
C766        C771   1.462       .  S
C766        C767   1.399       .  A
C767        C768   1.395   1_554  A
C767        F772   1.358       .  S
C768        C769   1.413       .  A
C768        F784   1.358       .  S
C769        C770   1.413       .  A
C770        F773   1.358   1_655  S
C771        C774   1.400   1_655  A
C771        C778   1.398       .  A
C774        C775   1.392       .  A
C774        F779   1.358       .  S
C775        C776   1.411       .  A
C775        F781   1.358       .  S
C776        C777   1.414   1_455  A
C777        C778   1.396       .  A
C777        F780   1.358       .  S
C778        F782   1.358       .  S
C785        C786   1.401   1_655  A
C785        C790   1.396       .  A
C785        F803   1.358       .  S
C786        C791   1.472       .  S
C786        C787   1.401       .  A
C787        C788   1.396       .  A
C787        F792   1.358       .  S
C788        C789   1.413   1_455  A
C788        F804   1.358       .  S
C789        C790   1.413       .  A
C790        F793   1.358       .  S
C791        C794   1.402       .  A
C791        C798   1.400       .  A
C794        C795   1.396       .  A
C794        F799   1.358       .  S
C795        C796   1.412       .  A
C795        F801   1.358       .  S
C796        C797   1.415       .  A
C797        C798   1.396       .  A
C797        F800   1.358   1_455  S
C798        F802   1.358   1_455  S
C805        C806   1.406       .  A
C805        C810   1.404       .  A
C805        F823   1.358       .  S
C806        C811   1.481       .  S
C806        C807   1.403       .  A
C807        C808   1.395       .  A
C807        F812   1.358       .  S
C808        C809   1.409       .  A
C808        F824   1.358       .  S
C809        C810   1.409       .  A
C810        F813   1.358       .  S
C811        C814   1.405   1_545  A
C811        C818   1.405   1_545  A
C814        C815   1.399       .  A
C814        F819   1.358   1_565  S
C815        C816   1.407       .  A
C815        F821   1.358       .  S
C816        C817   1.408       .  A
C817        C818   1.400       .  A
C817        F820   1.358       .  S
C818        F822   1.358   1_565  S
C825        C826   1.406       .  A
C825        C830   1.400       .  A
C825        F843   1.358       .  S
C826        C831   1.477       .  S
C826        C827   1.406       .  A
C827        C828   1.393       .  A
C827        F832   1.358       .  S
C828        C829   1.405       .  A
C828        F844   1.359       .  S
C829        C830   1.406       .  A
C830        F833   1.358       .  S
C831        C834   1.404       .  A
C831        C838   1.405       .  A
C834        C835   1.399       .  A
C834        F839   1.358       .  S
C835        C836   1.410       .  A
C835        F841   1.358       .  S
C836        C837   1.408       .  A
C837        C838   1.395       .  A
C837        F840   1.358       .  S
C838        F842   1.358       .  S
C845        C846   1.401       .  A
C845        C850   1.399       .  A
C845        F863   1.358       .  S
C846        C851   1.477       .  S
C846        C847   1.401       .  A
C847        C848   1.400       .  A
C847        F852   1.358       .  S
C848        C849   1.414       .  A
C848        F864   1.358       .  S
C849        C850   1.414       .  A
C850        F853   1.358       .  S
C851        C854   1.401       .  A
C851        C858   1.402       .  A
C854        C855   1.399       .  A
C854        F859   1.358       .  S
C855        C856   1.413       .  A
C855        F861   1.358       .  S
C856        C857   1.413       .  A
C857        C858   1.400       .  A
C857        F860   1.358       .  S
C858        F862   1.358       .  S
C865        C866   1.404       .  A
C865        C870   1.402       .  A
C865        F883   1.358   1_554  S
C866        C871   1.477       .  S
C866        C867   1.402       .  A
C867        C868   1.397       .  A
C867        F872   1.358       .  S
C868        C869   1.409       .  A
C868        F884   1.358       .  S
C869        C870   1.410       .  A
C870        F873   1.358   1_554  S
C871        C874   1.406       .  A
C871        C878   1.403   1_554  A
C874        C875   1.403       .  A
C874        F879   1.358       .  S
C875        C876   1.406   1_554  A
C875        F881   1.358       .  S
C876        C877   1.404       .  A
C877        C878   1.397       .  A
C877        F880   1.358       .  S
C878        F882   1.358       .  S
C885        C886   1.401       .  A
C885        C890   1.400       .  A
C885        F903   1.358       .  S
C886        C891   1.480       .  S
C886        C887   1.403       .  A
C887        C888   1.400       .  A
C887        F892   1.358       .  S
C888        C889   1.413       .  A
C888        F904   1.357       .  S
C889        C890   1.416       .  A
C890        F893   1.358       .  S
C891        C894   1.403       .  A
C891        C898   1.402       .  A
C894        C895   1.402       .  A
C894        F899   1.358       .  S
C895        C896   1.415       .  A
C895        F901   1.358       .  S
C896        C897   1.413       .  A
C897        C898   1.398       .  A
C897        F900   1.358       .  S
C898        F902   1.358       .  S
C905        C906   1.402       .  A
C905        C910   1.399       .  A
C905        F923   1.358       .  S
C906        C911   1.473       .  S
C906        C907   1.402       .  A
C907        C908   1.393       .  A
C907        F912   1.358       .  S
C908        C909   1.411       .  A
C908        F924   1.357       .  S
C909        C910   1.412       .  A
C910        F913   1.358       .  S
C911        C914   1.402       .  A
C911        C918   1.403       .  A
C914        C915   1.393       .  A
C914        F919   1.358       .  S
C915        C916   1.409       .  A
C915        F921   1.358       .  S
C916        C917   1.410       .  A
C917        C918   1.399       .  A
C917        F920   1.358       .  S
C918        F922   1.358       .  S
C925        C926   1.400       .  A
C925        C930   1.401       .  A
C925        F943   1.358       .  S
C926        C931   1.468       .  S
C926        C927   1.399       .  A
C927        C928   1.392       .  A
C927        F932   1.359       .  S
C928        C929   1.413       .  A
C928        F944   1.358       .  S
C929        C930   1.414       .  A
C930        F933   1.358       .  S
C931        C934   1.401       .  A
C931        C938   1.400       .  A
C934        C935   1.396       .  A
C934        F939   1.358       .  S
C935        C936   1.410       .  A
C935        F941   1.358       .  S
C936        C937   1.412       .  A
C937        C938   1.397       .  A
C937        F940   1.358       .  S
C938        F942   1.358       .  S
C945        C946   1.403       .  A
C945        C950   1.396       .  A
C945        F963   1.358       .  S
C946        C951   1.469       .  S
C946        C947   1.401       .  A
C947        C948   1.391       .  A
C947        F952   1.358       .  S
C948        C949   1.410       .  A
C948        F964   1.358       .  S
C949        C950   1.409       .  A
C950        F953   1.358       .  S
C951        C954   1.404       .  A
C951        C958   1.403       .  A
C954        C955   1.396       .  A
C954        F959   1.358       .  S
C955        C956   1.404       .  A
C955        F961   1.358       .  S
C956        C957   1.405       .  A
C957        C958   1.393       .  A
C957        F960   1.358       .  S
C958        F962   1.358       .  S
C965        C966   1.404       .  A
C965        C970   1.398       .  A
C965        F983   1.358       .  S
C966        C971   1.472       .  S
C966        C967   1.401       .  A
C967        C968   1.393       .  A
C967        F972   1.358       .  S
C968        C969   1.410       .  A
C968        F984   1.358       .  S
C969        C970   1.409       .  A
C970        F973   1.358       .  S
C971        C974   1.402       .  A
C971        C978   1.400       .  A
C974        C975   1.394       .  A
C974        F979   1.358       .  S
C975        C976   1.411       .  A
C975        F981   1.358       .  S
C976        C977   1.415       .  A
C977        C978   1.397       .  A
C977        F980   1.358       .  S
C978        F982   1.358       .  S
C985        C986   1.405       .  A
C985        C990   1.399       .  A
C985       F1003   1.358       .  S
C986        C991   1.481       .  S
C986        C987   1.405       .  A
C987        C988   1.399       .  A
C987        F992   1.358       .  S
C988        C989   1.407       .  A
C988       F1004   1.358       .  S
C989        C990   1.407       .  A
C990        F993   1.358       .  S
C991        C994   1.404       .  A
C991        C998   1.405       .  A
C994        C995   1.397       .  A
C994        F999   1.358       .  S
C995        C996   1.410       .  A
C995       F1001   1.358       .  S
C996        C997   1.409       .  A
C997        C998   1.402       .  A
C997       F1000   1.358       .  S
C998       F1002   1.358       .  S
C1005      C1006   1.404       .  A
C1005      C1010   1.402       .  A
C1005      F1023   1.357       .  S
C1006      C1011   1.478       .  S
C1006      C1007   1.403       .  A
C1007      C1008   1.394       .  A
C1007      F1012   1.358       .  S
C1008      C1009   1.410       .  A
C1008      F1024   1.358       .  S
C1009      C1010   1.411       .  A
C1010      F1013   1.358       .  S
C1011      C1014   1.402       .  A
C1011      C1018   1.405       .  A
C1014      C1015   1.393       .  A
C1014      F1019   1.359       .  S
C1015      C1016   1.412       .  A
C1015      F1021   1.359       .  S
C1016      C1017   1.410       .  A
C1017      C1018   1.404       .  A
C1017      F1020   1.357       .  S
C1018      F1022   1.357       .  S
C1025      C1026   1.401       .  A
C1025      C1030   1.398       .  A
C1025      F1043   1.358       .  S
C1026      C1031   1.472       .  S
C1026      C1027   1.401       .  A
C1027      C1028   1.396       .  A
C1027      F1032   1.358       .  S
C1028      C1029   1.412       .  A
C1028      F1044   1.358       .  S
C1029      C1030   1.413       .  A
C1030      F1033   1.358       .  S
C1031      C1034   1.402       .  A
C1031      C1038   1.400       .  A
C1034      C1035   1.397       .  A
C1034      F1039   1.358       .  S
C1035      C1036   1.411       .  A
C1035      F1041   1.358       .  S
C1036      C1037   1.415       .  A
C1037      C1038   1.397       .  A
C1037      F1040   1.358       .  S
C1038      F1042   1.358       .  S
C1045      C1046   1.403       .  A
C1045      C1050   1.396       .  A
C1045      F1063   1.358       .  S
C1046      C1051   1.480       .  S
C1046      C1047   1.403       .  A
C1047      C1048   1.401       .  A
C1047      F1052   1.358       .  S
C1048      C1049   1.413       .  A
C1048      F1064   1.358       .  S
C1049      C1050   1.413       .  A
C1050      F1053   1.358       .  S
C1051      C1054   1.405       .  A
C1051      C1058   1.405       .  A
C1054      C1055   1.397       .  A
C1054      F1059   1.358       .  S
C1055      C1056   1.409       .  A
C1055      F1061   1.358       .  S
C1056      C1057   1.408       .  A
C1057      C1058   1.399       .  A
C1057      F1060   1.358       .  S
C1058      F1062   1.358       .  S
C1065      C1066   1.401       .  A
C1065      C1070   1.400       .  A
C1065      F1083   1.358       .  S
C1066      C1071   1.472       .  S
C1066      C1067   1.400       .  A
C1067      C1068   1.393       .  A
C1067      F1072   1.359       .  S
C1068      C1069   1.413       .  A
C1068      F1084   1.358       .  S
C1069      C1070   1.414       .  A
C1070      F1073   1.358       .  S
C1071      C1074   1.400       .  A
C1071      C1078   1.401       .  A
C1074      C1075   1.397       .  A
C1074      F1079   1.358       .  S
C1075      C1076   1.414       .  A
C1075      F1081   1.358       .  S
C1076      C1077   1.412       .  A
C1077      C1078   1.396       .  A
C1077      F1080   1.358       .  S
C1078      F1082   1.358       .  S
C1085      C1086   1.402       .  A
C1085      C1090   1.396       .  A
C1085      F1103   1.358       .  S
C1086      C1091   1.474       .  S
C1086      C1087   1.402       .  A
C1087      C1088   1.396       .  A
C1087      F1092   1.358       .  S
C1088      C1089   1.412       .  A
C1088      F1104   1.358       .  S
C1089      C1090   1.413       .  A
C1090      F1093   1.358       .  S
C1091      C1094   1.403       .  A
C1091      C1098   1.403       .  A
C1094      C1095   1.399       .  A
C1094      F1099   1.358       .  S
C1095      C1096   1.410       .  A
C1095      F1101   1.357       .  S
C1096      C1097   1.408       .  A
C1097      C1098   1.394       .  A
C1097      F1100   1.358       .  S
C1098      F1102   1.358       .  S
C1105      C1106   1.404       .  A
C1105      C1110   1.397       .  A
C1105      F1123   1.358       .  S
C1106      C1111   1.475       .  S
C1106      C1107   1.404       .  A
C1107      C1108   1.396       .  A
C1107      F1112   1.358       .  S
C1108      C1109   1.408       .  A
C1108      F1124   1.358       .  S
C1109      C1110   1.408       .  A
C1110      F1113   1.358       .  S
C1111      C1114   1.404       .  A
C1111      C1118   1.404       .  A
C1114      C1115   1.399       .  A
C1114      F1119   1.358       .  S
C1115      C1116   1.408       .  A
C1115      F1121   1.358       .  S
C1116      C1117   1.407       .  A
C1117      C1118   1.393       .  A
C1117      F1120   1.358       .  S
C1118      F1122   1.358       .  S
C1125      C1126   1.404       .  A
C1125      C1130   1.398       .  A
C1125      F1143   1.358       .  S
C1126      C1131   1.479       .  S
C1126      C1127   1.404   1_554  A
C1127      C1128   1.400       .  A
C1127      F1132   1.358       .  S
C1128      C1129   1.410   1_556  A
C1128      F1144   1.358       .  S
C1129      C1130   1.409       .  A
C1130      F1133   1.358       .  S
C1131      C1134   1.405   1_554  A
C1131      C1138   1.406       .  A
C1134      C1135   1.397   1_556  A
C1134      F1139   1.358       .  S
C1135      C1136   1.404       .  A
C1135      F1141   1.358   1_554  S
C1136      C1137   1.405       .  A
C1137      C1138   1.400       .  A
C1137      F1140   1.358       .  S
C1138      F1142   1.358       .  S
C1145      C1146   1.405       .  A
C1145      C1150   1.394       .  A
C1145      F1163   1.358       .  S
C1146      C1151   1.474       .  S
C1146      C1147   1.404       .  A
C1147      C1148   1.399       .  A
C1147      F1152   1.358       .  S
C1148      C1149   1.407       .  A
C1148      F1164   1.358   1_556  S
C1149      C1150   1.404       .  A
C1150      F1153   1.358       .  S
C1151      C1154   1.404       .  A
C1151      C1158   1.405       .  A
C1154      C1155   1.399       .  A
C1154      F1159   1.358       .  S
C1155      C1156   1.407       .  A
C1155      F1161   1.358       .  S
C1156      C1157   1.404       .  A
C1157      C1158   1.394       .  A
C1157      F1160   1.357       .  S
C1158      F1162   1.358       .  S
C1165      C1166   1.403       .  A
C1165      C1170   1.396       .  A
C1165      F1183   1.358       .  S
C1166      C1171   1.476       .  S
C1166      C1167   1.403       .  A
C1167      C1168   1.396       .  A
C1167      F1172   1.358       .  S
C1168      C1169   1.412       .  A
C1168      F1184   1.358       .  S
C1169      C1170   1.410       .  A
C1170      F1173   1.358       .  S
C1171      C1174   1.403       .  A
C1171      C1178   1.404       .  A
C1174      C1175   1.396       .  A
C1174      F1179   1.358       .  S
C1175      C1176   1.412       .  A
C1175      F1181   1.358   1_655  S
C1176      C1177   1.409       .  A
C1177      C1178   1.396       .  A
C1177      F1180   1.358       .  S
C1178      F1182   1.358       .  S
C1185      C1186   1.408       .  A
C1185      C1190   1.400       .  A
C1185      F1203   1.358       .  S
C1186      C1191   1.488       .  S
C1186      C1187   1.410       .  A
C1187      C1188   1.400       .  A
C1187      F1192   1.358       .  S
C1188      C1189   1.402       .  A
C1188      F1204   1.358       .  S
C1189      C1190   1.405       .  A
C1190      F1193   1.358       .  S
C1191      C1194   1.407       .  A
C1191      C1198   1.407       .  A
C1194      C1195   1.399       .  A
C1194      F1199   1.358       .  S
C1195      C1196   1.409       .  A
C1195      F1201   1.358       .  S
C1196      C1197   1.409       .  A
C1197      C1198   1.400       .  A
C1197      F1200   1.358       .  S
C1198      F1202   1.358       .  S
C1205      C1206   1.405       .  A
C1205      C1210   1.402       .  A
C1205      F1223   1.358       .  S
C1206      C1211   1.486       .  S
C1206      C1207   1.404       .  A
C1207      C1208   1.398       .  A
C1207      F1212   1.358       .  S
C1208      C1209   1.414       .  A
C1208      F1224   1.358       .  S
C1209      C1210   1.413       .  A
C1210      F1213   1.357       .  S
C1211      C1214   1.405       .  A
C1211      C1218   1.406       .  A
C1214      C1215   1.400       .  A
C1214      F1219   1.358       .  S
C1215      C1216   1.411       .  A
C1215      F1221   1.358       .  S
C1216      C1217   1.410       .  A
C1217      C1218   1.400       .  A
C1217      F1220   1.358       .  S
C1218      F1222   1.358       .  S
C1225      C1226   1.406       .  A
C1225      C1230   1.396       .  A
C1225      F1243   1.358       .  S
C1226      C1231   1.480       .  S
C1226      C1227   1.404       .  A
C1227      C1228   1.398       .  A
C1227      F1232   1.358       .  S
C1228      C1229   1.410       .  A
C1228      F1244   1.358       .  S
C1229      C1230   1.407       .  A
C1230      F1233   1.358       .  S
C1231      C1234   1.406       .  A
C1231      C1238   1.404       .  A
C1234      C1235   1.395       .  A
C1234      F1239   1.358       .  S
C1235      C1236   1.408       .  A
C1235      F1241   1.358       .  S
C1236      C1237   1.411       .  A
C1237      C1238   1.400       .  A
C1237      F1240   1.358   1_556  S
C1238      F1242   1.358       .  S
C1245      C1246   1.402       .  A
C1245      C1250   1.392       .  A
C1245      F1263   1.359       .  S
C1246      C1251   1.475       .  S
C1246      C1247   1.405       .  A
C1247      C1248   1.402       .  A
C1247      F1252   1.357       .  S
C1248      C1249   1.408       .  A
C1248      F1264   1.357       .  S
C1249      C1250   1.409       .  A
C1250      F1253   1.359       .  S
C1251      C1254   1.403       .  A
C1251      C1258   1.403   1_545  A
C1254      C1255   1.392   1_545  A
C1254      F1259   1.359       .  S
C1255      C1256   1.409       .  A
C1255      F1261   1.358       .  S
C1256      C1257   1.412       .  A
C1257      C1258   1.402       .  A
C1257      F1260   1.358       .  S
C1258      F1262   1.358       .  S
C1265      C1266   1.403       .  A
C1265      C1270   1.399       .  A
C1265      F1283   1.358       .  S
C1266      C1271   1.476       .  S
C1266      C1267   1.402       .  A
C1267      C1268   1.396       .  A
C1267      F1272   1.358       .  S
C1268      C1269   1.413       .  A
C1268      F1284   1.358       .  S
C1269      C1270   1.411       .  A
C1270      F1273   1.358       .  S
C1271      C1274   1.403       .  A
C1271      C1278   1.401       .  A
C1274      C1275   1.399       .  A
C1274      F1279   1.358       .  S
C1275      C1276   1.412       .  A
C1275      F1281   1.358       .  S
C1276      C1277   1.413       .  A
C1277      C1278   1.396       .  A
C1277      F1280   1.358       .  S
C1278      F1282   1.358       .  S
C1285      C1286   1.405       .  A
C1285      C1290   1.393       .  A
C1285      F1303   1.358       .  S
C1286      C1291   1.475       .  S
C1286      C1287   1.404       .  A
C1287      C1288   1.401       .  A
C1287      F1292   1.358       .  S
C1288      C1289   1.408       .  A
C1288      F1304   1.358       .  S
C1289      C1290   1.405       .  A
C1290      F1293   1.359       .  S
C1291      C1294   1.404       .  A
C1291      C1298   1.405       .  A
C1294      C1295   1.398       .  A
C1294      F1299   1.358       .  S
C1295      C1296   1.406       .  A
C1295      F1301   1.358       .  S
C1296      C1297   1.406       .  A
C1297      C1298   1.396       .  A
C1297      F1300   1.358       .  S
C1298      F1302   1.358       .  S
C1305      C1306   1.403       .  A
C1305      C1310   1.400       .  A
C1305      F1323   1.358       .  S
C1306      C1311   1.473       .  S
C1306      C1307   1.402       .  A
C1307      C1308   1.391       .  A
C1307      F1312   1.359       .  S
C1308      C1309   1.410       .  A
C1308      F1324   1.358       .  S
C1309      C1310   1.410       .  A
C1310      F1313   1.357       .  S
C1311      C1314   1.403       .  A
C1311      C1318   1.403       .  A
C1314      C1315   1.397   1_554  A
C1314      F1319   1.358       .  S
C1315      C1316   1.408       .  A
C1315      F1321   1.358       .  S
C1316      C1317   1.408       .  A
C1317      C1318   1.395   1_556  A
C1317      F1320   1.358       .  S
C1318      F1322   1.358       .  S
C1325      C1326   1.402       .  A
C1325      C1330   1.399       .  A
C1325      F1343   1.358       .  S
C1326      C1331   1.472       .  S
C1326      C1327   1.402       .  A
C1327      C1328   1.397       .  A
C1327      F1332   1.358       .  S
C1328      C1329   1.410       .  A
C1328      F1344   1.358       .  S
C1329      C1330   1.410       .  A
C1330      F1333   1.358       .  S
C1331      C1334   1.400       .  A
C1331      C1338   1.401       .  A
C1334      C1335   1.394       .  A
C1334      F1339   1.358       .  S
C1335      C1336   1.412       .  A
C1335      F1341   1.358       .  S
C1336      C1337   1.415       .  A
C1337      C1338   1.402       .  A
C1337      F1340   1.358       .  S
C1338      F1342   1.358       .  S
C1345      C1346   1.402       .  A
C1345      C1350   1.398       .  A
C1345      F1363   1.358       .  S
C1346      C1351   1.471       .  S
C1346      C1347   1.401       .  A
C1347      C1348   1.396       .  A
C1347      F1352   1.358       .  S
C1348      C1349   1.410       .  A
C1348      F1364   1.358       .  S
C1349      C1350   1.409       .  A
C1350      F1353   1.358       .  S
C1351      C1354   1.402       .  A
C1351      C1358   1.400       .  A
C1354      C1355   1.397       .  A
C1354      F1359   1.358       .  S
C1355      C1356   1.412       .  A
C1355      F1361   1.358       .  S
C1356      C1357   1.412       .  A
C1357      C1358   1.396       .  A
C1357      F1360   1.358       .  S
C1358      F1362   1.358       .  S
C1365      C1366   1.403       .  A
C1365      C1370   1.403       .  A
C1365      F1383   1.358       .  S
C1366      C1371   1.476       .  S
C1366      C1367   1.401       .  A
C1367      C1368   1.392       .  A
C1367      F1372   1.359       .  S
C1368      C1369   1.411       .  A
C1368      F1384   1.358       .  S
C1369      C1370   1.413       .  A
C1370      F1373   1.358       .  S
C1371      C1374   1.403       .  A
C1371      C1378   1.401   1_556  A
C1374      C1375   1.400   1_556  A
C1374      F1379   1.358       .  S
C1375      C1376   1.412       .  A
C1375      F1381   1.358       .  S
C1376      C1377   1.415       .  A
C1377      C1378   1.394       .  A
C1377      F1380   1.358       .  S
C1378      F1382   1.358       .  S
C1385      C1386   1.399       .  A
C1385      C1390   1.398       .  A
C1385      F1403   1.358       .  S
C1386      C1391   1.465       .  S
C1386      C1387   1.399       .  A
C1387      C1388   1.392       .  A
C1387      F1392   1.358       .  S
C1388      C1389   1.410       .  A
C1388      F1404   1.358       .  S
C1389      C1390   1.413       .  A
C1390      F1393   1.358       .  S
C1391      C1394   1.402       .  A
C1391      C1398   1.402       .  A
C1394      C1395   1.395       .  A
C1394      F1399   1.358       .  S
C1395      C1396   1.405       .  A
C1395      F1401   1.358       .  S
C1396      C1397   1.406       .  A
C1397      C1398   1.396       .  A
C1397      F1400   1.358       .  S
C1398      F1402   1.358       .  S
C1405      C1406   1.405       .  A
C1405      C1410   1.399       .  A
C1405      F1423   1.358       .  S
C1406      C1411   1.476       .  S
C1406      C1407   1.404       .  A
C1407      C1408   1.396       .  A
C1407      F1412   1.358       .  S
C1408      C1409   1.407       .  A
C1408      F1424   1.358       .  S
C1409      C1410   1.406       .  A
C1410      F1413   1.358       .  S
C1411      C1414   1.406       .  A
C1411      C1418   1.404   1_545  A
C1414      C1415   1.401   1_545  A
C1414      F1419   1.358       .  S
C1415      C1416   1.405       .  A
C1415      F1421   1.358       .  S
C1416      C1417   1.405       .  A
C1417      C1418   1.394       .  A
C1417      F1420   1.358       .  S
C1418      F1422   1.358   1_565  S
C1425      C1426   1.404       .  A
C1425      C1430   1.401       .  A
C1425      F1443   1.358       .  S
C1426      C1431   1.481       .  S
C1426      C1427   1.404       .  A
C1427      C1428   1.398       .  A
C1427      F1432   1.358       .  S
C1428      C1429   1.410       .  A
C1428      F1444   1.358       .  S
C1429      C1430   1.412       .  A
C1430      F1433   1.358       .  S
C1431      C1434   1.404       .  A
C1431      C1438   1.405       .  A
C1434      C1435   1.400       .  A
C1434      F1439   1.358       .  S
C1435      C1436   1.410       .  A
C1435      F1441   1.358       .  S
C1436      C1437   1.407       .  A
C1437      C1438   1.399       .  A
C1437      F1440   1.358       .  S
C1438      F1442   1.358       .  S
C1445      C1446   1.403       .  A
C1445      C1450   1.393       .  A
C1445      F1463   1.359       .  S
C1446      C1451   1.472       .  S
C1446      C1447   1.401       .  A
C1447      C1448   1.400       .  A
C1447      F1452   1.358       .  S
C1448      C1449   1.413       .  A
C1448      F1464   1.358       .  S
C1449      C1450   1.409       .  A
C1450      F1453   1.358       .  S
C1451      C1454   1.404       .  A
C1451      C1458   1.402       .  A
C1454      C1455   1.396       .  A
C1454      F1459   1.358       .  S
C1455      C1456   1.406       .  A
C1455      F1461   1.357       .  S
C1456      C1457   1.409       .  A
C1457      C1458   1.397       .  A
C1457      F1460   1.358       .  S
C1458      F1462   1.358       .  S
C1465      C1466   1.404       .  A
C1465      C1470   1.396       .  A
C1465      F1483   1.358       .  S
C1466      C1471   1.476       .  S
C1466      C1467   1.405       .  A
C1467      C1468   1.401       .  A
C1467      F1472   1.358       .  S
C1468      C1469   1.406       .  A
C1468      F1484   1.358       .  S
C1469      C1470   1.406       .  A
C1470      F1473   1.358       .  S
C1471      C1474   1.404       .  A
C1471      C1478   1.406       .  A
C1474      C1475   1.397       .  A
C1474      F1479   1.358       .  S
C1475      C1476   1.404       .  A
C1475      F1481   1.358       .  S
C1476      C1477   1.404       .  A
C1477      C1478   1.400       .  A
C1477      F1480   1.358       .  S
C1478      F1482   1.358       .  S
C1485      C1486   1.405       .  A
C1485      C1490   1.398       .  A
C1485      F1503   1.358       .  S
C1486      C1491   1.480       .  S
C1486      C1487   1.406       .  A
C1487      C1488   1.398       .  A
C1487      F1492   1.358       .  S
C1488      C1489   1.407       .  A
C1488      F1504   1.358       .  S
C1489      C1490   1.407       .  A
C1490      F1493   1.358       .  S
C1491      C1494   1.407       .  A
C1491      C1498   1.405       .  A
C1494      C1495   1.399       .  A
C1494      F1499   1.358       .  S
C1495      C1496   1.404       .  A
C1495      F1501   1.358       .  S
C1496      C1497   1.405       .  A
C1497      C1498   1.397       .  A
C1497      F1500   1.358       .  S
C1498      F1502   1.358       .  S
C1505      C1506   1.403       .  A
C1505      C1510   1.398       .  A
C1505      F1523   1.358       .  S
C1506      C1511   1.472       .  S
C1506      C1507   1.402       .  A
C1507      C1508   1.395       .  A
C1507      F1512   1.358       .  S
C1508      C1509   1.408       .  A
C1508      F1524   1.358       .  S
C1509      C1510   1.409       .  A
C1510      F1513   1.358       .  S
C1511      C1514   1.401       .  A
C1511      C1518   1.402       .  A
C1514      C1515   1.396       .  A
C1514      F1519   1.358       .  S
C1515      C1516   1.412       .  A
C1515      F1521   1.358       .  S
C1516      C1517   1.411       .  A
C1517      C1518   1.397       .  A
C1517      F1520   1.358       .  S
C1518      F1522   1.358       .  S
C1525      C1526   1.403       .  A
C1525      C1530   1.399       .  A
C1525      F1543   1.358       .  S
C1526      C1531   1.472       .  S
C1526      C1527   1.402       .  A
C1527      C1528   1.393       .  A
C1527      F1532   1.358   1_455  S
C1528      C1529   1.409       .  A
C1528      F1544   1.358       .  S
C1529      C1530   1.410       .  A
C1530      F1533   1.358       .  S
C1531      C1534   1.404       .  A
C1531      C1538   1.401       .  A
C1534      C1535   1.402       .  A
C1534      F1539   1.358       .  S
C1535      C1536   1.410       .  A
C1535      F1541   1.358       .  S
C1536      C1537   1.409   1_455  A
C1537      C1538   1.390   1_655  A
C1537      F1540   1.357       .  S
C1538      F1542   1.359   1_455  S
C1545      C1546   1.401   1_554  A
C1545      C1550   1.394       .  A
C1545      F1563   1.358   1_655  S
C1546      C1551   1.471       .  S
C1546      C1547   1.402   1_556  A
C1547      C1548   1.397       .  A
C1547      F1552   1.358   1_554  S
C1548      C1549   1.412       .  A
C1548      F1564   1.358       .  S
C1549      C1550   1.410       .  A
C1550      F1553   1.358   1_655  S
C1551      C1554   1.402       .  A
C1551      C1558   1.402       .  A
C1554      C1555   1.398   1_655  A
C1554      F1559   1.358       .  S
C1555      C1556   1.411       .  A
C1555      F1561   1.358       .  S
C1556      C1557   1.411   1_455  A
C1557      C1558   1.394       .  A
C1557      F1560   1.358   1_655  S
C1558      F1562   1.359       .  S
C1565      C1566   1.402       .  A
C1565      C1570   1.398   1_554  A
C1565      F1583   1.358       .  S
C1566      C1571   1.470       .  S
C1566      C1567   1.400       .  A
C1567      C1568   1.395   1_554  A
C1567      F1572   1.358   1_455  S
C1568      C1569   1.411       .  A
C1568      F1584   1.358       .  S
C1569      C1570   1.409       .  A
C1570      F1573   1.358       .  S
C1571      C1574   1.401       .  A
C1571      C1578   1.402   1_455  A
C1574      C1575   1.398       .  A
C1574      F1579   1.358       .  S
C1575      C1576   1.409   1_455  A
C1575      F1581   1.358       .  S
C1576      C1577   1.409       .  A
C1577      C1578   1.395       .  A
C1577      F1580   1.358       .  S
C1578      F1582   1.358       .  S
C1585      C1586   1.402       .  A
C1585      C1590   1.397       .  A
C1585      F1603   1.358   1_655  S
C1586      C1591   1.474       .  S
C1586      C1587   1.404       .  A
C1587      C1588   1.397       .  A
C1587      F1592   1.358       .  S
C1588      C1589   1.408       .  A
C1588      F1604   1.358       .  S
C1589      C1590   1.410       .  A
C1590      F1593   1.358   1_655  S
C1591      C1594   1.403       .  A
C1591      C1598   1.402       .  A
C1594      C1595   1.400   1_655  A
C1594      F1599   1.358       .  S
C1595      C1596   1.411       .  A
C1595      F1601   1.358       .  S
C1596      C1597   1.411       .  A
C1597      C1598   1.393   1_455  A
C1597      F1600   1.358       .  S
C1598      F1602   1.358       .  S
C1605      C1606   1.405       .  A
C1605      C1610   1.406       .  A
C1605      F1623   1.357       .  S
C1606      C1611   1.478       .  S
C1606      C1607   1.401       .  A
C1607      C1608   1.392       .  A
C1607      F1612   1.359       .  S
C1608      C1609   1.410       .  A
C1608      F1624   1.358       .  S
C1609      C1610   1.410       .  A
C1610      F1613   1.357       .  S
C1611      C1614   1.404       .  A
C1611      C1618   1.405       .  A
C1614      C1615   1.394       .  A
C1614      F1619   1.358       .  S
C1615      C1616   1.406       .  A
C1615      F1621   1.358       .  S
C1616      C1617   1.408       .  A
C1617      C1618   1.403       .  A
C1617      F1620   1.358       .  S
C1618      F1622   1.357       .  S
C1625      C1626   1.403       .  A
C1625      C1630   1.399       .  A
C1625      F1643   1.358       .  S
C1626      C1631   1.483       .  S
C1626      C1627   1.405       .  A
C1627      C1628   1.402       .  A
C1627      F1632   1.358       .  S
C1628      C1629   1.411       .  A
C1628      F1644   1.358   1_556  S
C1629      C1630   1.412       .  A
C1630      F1633   1.358       .  S
C1631      C1634   1.402       .  A
C1631      C1638   1.405       .  A
C1634      C1635   1.398       .  A
C1634      F1639   1.358       .  S
C1635      C1636   1.414       .  A
C1635      F1641   1.358       .  S
C1636      C1637   1.412       .  A
C1637      C1638   1.403       .  A
C1637      F1640   1.358       .  S
C1638      F1642   1.358       .  S
C1645      C1646   1.406       .  A
C1645      C1650   1.396       .  A
C1645      F1663   1.358       .  S
C1646      C1651   1.481       .  S
C1646      C1647   1.406       .  A
C1647      C1648   1.399       .  A
C1647      F1652   1.358       .  S
C1648      C1649   1.408       .  A
C1648      F1664   1.358       .  S
C1649      C1650   1.406       .  A
C1650      F1653   1.358       .  S
C1651      C1654   1.406       .  A
C1651      C1658   1.407       .  A
C1654      C1655   1.402       .  A
C1654      F1659   1.358       .  S
C1655      C1656   1.408       .  A
C1655      F1661   1.358       .  S
C1656      C1657   1.403       .  A
C1657      C1658   1.394       .  A
C1657      F1660   1.357       .  S
C1658      F1662   1.358       .  S
C1665      C1666   1.405       .  A
C1665      C1670   1.399       .  A
C1665      F1683   1.358       .  S
C1666      C1671   1.478       .  S
C1666      C1667   1.405       .  A
C1667      C1668   1.396       .  A
C1667      F1672   1.358       .  S
C1668      C1669   1.407       .  A
C1668      F1684   1.358       .  S
C1669      C1670   1.408       .  A
C1670      F1673   1.358       .  S
C1671      C1674   1.406       .  A
C1671      C1678   1.404       .  A
C1674      C1675   1.401       .  A
C1674      F1679   1.358       .  S
C1675      C1676   1.408       .  A
C1675      F1681   1.358       .  S
C1676      C1677   1.406       .  A
C1677      C1678   1.393       .  A
C1677      F1680   1.357       .  S
C1678      F1682   1.358       .  S
C1685      C1686   1.404       .  A
C1685      C1690   1.398       .  A
C1685      F1703   1.358       .  S
C1686      C1691   1.481       .  S
C1686      C1687   1.405       .  A
C1687      C1688   1.398       .  A
C1687      F1692   1.358       .  S
C1688      C1689   1.410       .  A
C1688      F1704   1.358       .  S
C1689      C1690   1.410       .  A
C1690      F1693   1.358       .  S
C1691      C1694   1.402       .  A
C1691      C1698   1.405       .  A
C1694      C1695   1.398       .  A
C1694      F1699   1.358       .  S
C1695      C1696   1.416       .  A
C1695      F1701   1.358       .  S
C1696      C1697   1.411       .  A
C1697      C1698   1.399       .  A
C1697      F1700   1.358       .  S
C1698      F1702   1.358       .  S
C1705      C1706   1.403       .  A
C1705      C1710   1.400       .  A
C1705      F1723   1.358       .  S
C1706      C1711   1.482       .  S
C1706      C1707   1.403       .  A
C1707      C1708   1.398       .  A
C1707      F1712   1.358       .  S
C1708      C1709   1.413       .  A
C1708      F1724   1.358       .  S
C1709      C1710   1.414       .  A
C1710      F1713   1.358       .  S
C1711      C1714   1.404       .  A
C1711      C1718   1.403       .  A
C1714      C1715   1.397       .  A
C1714      F1719   1.358       .  S
C1715      C1716   1.412       .  A
C1715      F1721   1.358       .  S
C1716      C1717   1.415       .  A
C1717      C1718   1.401       .  A
C1717      F1720   1.358       .  S
C1718      F1722   1.358       .  S
C1725      C1726   1.406       .  A
C1725      C1730   1.395       .  A
C1725      F1743   1.358       .  S
C1726      C1731   1.479       .  S
C1726      C1727   1.404       .  A
C1727      C1728   1.399       .  A
C1727      F1732   1.358       .  S
C1728      C1729   1.411       .  A
C1728      F1744   1.358       .  S
C1729      C1730   1.407       .  A
C1730      F1733   1.358       .  S
C1731      C1734   1.405       .  A
C1731      C1738   1.404       .  A
C1734      C1735   1.395       .  A
C1734      F1739   1.358       .  S
C1735      C1736   1.408       .  A
C1735      F1741   1.358       .  S
C1736      C1737   1.410       .  A
C1737      C1738   1.400       .  A
C1737      F1740   1.358       .  S
C1738      F1742   1.358       .  S
C1745      C1746   1.401       .  A
C1745      C1750   1.395       .  A
C1745      F1763   1.358       .  S
C1746      C1751   1.481       .  S
C1746      C1747   1.405       .  A
C1747      C1748   1.403       .  A
C1747      F1752   1.358       .  S
C1748      C1749   1.414       .  A
C1748      F1764   1.358       .  S
C1749      C1750   1.414       .  A
C1750      F1753   1.358       .  S
C1751      C1754   1.403       .  A
C1751      C1758   1.403       .  A
C1754      C1755   1.398       .  A
C1754      F1759   1.358       .  S
C1755      C1756   1.412       .  A
C1755      F1761   1.358       .  S
C1756      C1757   1.413       .  A
C1757      C1758   1.400       .  A
C1757      F1760   1.358       .  S
C1758      F1762   1.358       .  S
C1765      C1766   1.404       .  A
C1765      C1770   1.395       .  A
C1765      F1783   1.358       .  S
C1766      C1771   1.478       .  S
C1766      C1767   1.406       .  A
C1767      C1768   1.403       .  A
C1767      F1772   1.358       .  S
C1768      C1769   1.405       .  A
C1768      F1784   1.358       .  S
C1769      C1770   1.404       .  A
C1770      F1773   1.358       .  S
C1771      C1774   1.401       .  A
C1771      C1778   1.402       .  A
C1774      C1775   1.394       .  A
C1774      F1779   1.358       .  S
C1775      C1776   1.413       .  A
C1775      F1781   1.358       .  S
C1776      C1777   1.415       .  A
C1777      C1778   1.403       .  A
C1777      F1780   1.358       .  S
C1778      F1782   1.358       .  S
C1785      C1786   1.405       .  A
C1785      C1790   1.403       .  A
C1785      F1803   1.358       .  S
C1786      C1791   1.484       .  S
C1786      C1787   1.403       .  A
C1787      C1788   1.396       .  A
C1787      F1792   1.358       .  S
C1788      C1789   1.412       .  A
C1788      F1804   1.358       .  S
C1789      C1790   1.415       .  A
C1790      F1793   1.358       .  S
C1791      C1794   1.403       .  A
C1791      C1798   1.405       .  A
C1794      C1795   1.400       .  A
C1794      F1799   1.358       .  S
C1795      C1796   1.417       .  A
C1795      F1801   1.358       .  S
C1796      C1797   1.411       .  A
C1797      C1798   1.400       .  A
C1797      F1800   1.357       .  S
C1798      F1802   1.358       .  S
C1805      C1806   1.405       .  A
C1805      C1810   1.400       .  A
C1805      F1823   1.358       .  S
C1806      C1811   1.475       .  S
C1806      C1807   1.406       .  A
C1807      C1808   1.391       .  A
C1807      F1812   1.358       .  S
C1808      C1809   1.402       .  A
C1808      F1824   1.358       .  S
C1809      C1810   1.407       .  A
C1810      F1813   1.358   1_556  S
C1811      C1814   1.405       .  A
C1811      C1818   1.403       .  A
C1814      C1815   1.396       .  A
C1814      F1819   1.358       .  S
C1815      C1816   1.407       .  A
C1815      F1821   1.358       .  S
C1816      C1817   1.410       .  A
C1817      C1818   1.396       .  A
C1817      F1820   1.358       .  S
C1818      F1822   1.358       .  S
C1825      C1826   1.405       .  A
C1825      C1830   1.398       .  A
C1825      F1843   1.358       .  S
C1826      C1831   1.481       .  S
C1826      C1827   1.406       .  A
C1827      C1828   1.398       .  A
C1827      F1832   1.358       .  S
C1828      C1829   1.407       .  A
C1828      F1844   1.358       .  S
C1829      C1830   1.407       .  A
C1830      F1833   1.358       .  S
C1831      C1834   1.409       .  A
C1831      C1838   1.406       .  A
C1834      C1835   1.400       .  A
C1834      F1839   1.358       .  S
C1835      C1836   1.403       .  A
C1835      F1841   1.358       .  S
C1836      C1837   1.404       .  A
C1837      C1838   1.397       .  A
C1837      F1840   1.358       .  S
C1838      F1842   1.358       .  S
C1845      C1846   1.401       .  A
C1845      C1850   1.396       .  A
C1845      F1863   1.358       .  S
C1846      C1851   1.469       .  S
C1846      C1847   1.401       .  A
C1847      C1848   1.397       .  A
C1847      F1852   1.358       .  S
C1848      C1849   1.410       .  A
C1848      F1864   1.358       .  S
C1849      C1850   1.408       .  A
C1850      F1853   1.358       .  S
C1851      C1854   1.399       .  A
C1851      C1858   1.399       .  A
C1854      C1855   1.399       .  A
C1854      F1859   1.358       .  S
C1855      C1856   1.415       .  A
C1855      F1861   1.358       .  S
C1856      C1857   1.414       .  A
C1857      C1858   1.394       .  A
C1857      F1860   1.358       .  S
C1858      F1862   1.358       .  S
C1865      C1866   1.402       .  A
C1865      C1870   1.401       .  A
C1865      F1883   1.358       .  S
C1866      C1871   1.474       .  S
C1866      C1867   1.401       .  A
C1867      C1868   1.392       .  A
C1867      F1872   1.359       .  S
C1868      C1869   1.411       .  A
C1868      F1884   1.358       .  S
C1869      C1870   1.414       .  A
C1870      F1873   1.358       .  S
C1871      C1874   1.403       .  A
C1871      C1878   1.403       .  A
C1874      C1875   1.395       .  A
C1874      F1879   1.358       .  S
C1875      C1876   1.409       .  A
C1875      F1881   1.358       .  S
C1876      C1877   1.410       .  A
C1877      C1878   1.398       .  A
C1877      F1880   1.358       .  S
C1878      F1882   1.358       .  S
C1885      C1886   1.405       .  A
C1885      C1890   1.402       .  A
C1885      F1903   1.358       .  S
C1886      C1891   1.488       .  S
C1886      C1887   1.407       .  A
C1887      C1888   1.400       .  A
C1887      F1892   1.358       .  S
C1888      C1889   1.409       .  A
C1888      F1904   1.358       .  S
C1889      C1890   1.411       .  A
C1890      F1893   1.358   1_556  S
C1891      C1894   1.403       .  A
C1891      C1898   1.408       .  A
C1894      C1895   1.396       .  A
C1894      F1899   1.358       .  S
C1895      C1896   1.413       .  A
C1895      F1901   1.358       .  S
C1896      C1897   1.411       .  A
C1897      C1898   1.405       .  A
C1897      F1900   1.358       .  S
C1898      F1902   1.358       .  S
C1905      C1906   1.401       .  A
C1905      C1910   1.396       .  A
C1905      F1923   1.358       .  S
C1906      C1911   1.468       .  S
C1906      C1907   1.400       .  A
C1907      C1908   1.394       .  A
C1907      F1912   1.358       .  S
C1908      C1909   1.414       .  A
C1908      F1924   1.358       .  S
C1909      C1910   1.412       .  A
C1910      F1913   1.358       .  S
C1911      C1914   1.400       .  A
C1911      C1918   1.402       .  A
C1914      C1915   1.396       .  A
C1914      F1919   1.358       .  S
C1915      C1916   1.410       .  A
C1915      F1921   1.358       .  S
C1916      C1917   1.409       .  A
C1917      C1918   1.394       .  A
C1917      F1920   1.358       .  S
C1918      F1922   1.358       .  S
C1925      C1926   1.401       .  A
C1925      C1930   1.395       .  A
C1925      F1943   1.358       .  S
C1926      C1931   1.469       .  S
C1926      C1927   1.398       .  A
C1927      C1928   1.398       .  A
C1927      F1932   1.358       .  S
C1928      C1929   1.416       .  A
C1928      F1944   1.358       .  S
C1929      C1930   1.411       .  A
C1930      F1933   1.358       .  S
C1931      C1934   1.402       .  A
C1931      C1938   1.399       .  A
C1934      C1935   1.400       .  A
C1934      F1939   1.358       .  S
C1935      C1936   1.411       .  A
C1935      F1941   1.358       .  S
C1936      C1937   1.412       .  A
C1937      C1938   1.392       .  A
C1937      F1940   1.358       .  S
C1938      F1942   1.358       .  S
C1945      C1946   1.403       .  A
C1945      C1950   1.396       .  A
C1945      F1963   1.358       .  S
C1946      C1951   1.475       .  S
C1946      C1947   1.402   1_554  A
C1947      C1948   1.401       .  A
C1947      F1952   1.358       .  S
C1948      C1949   1.412       .  A
C1948      F1964   1.358       .  S
C1949      C1950   1.408   1_556  A
C1950      F1953   1.358       .  S
C1951      C1954   1.400       .  A
C1951      C1958   1.402       .  A
C1954      C1955   1.393       .  A
C1954      F1959   1.358   1_554  S
C1955      C1956   1.414       .  A
C1955      F1961   1.358       .  S
C1956      C1957   1.413       .  A
C1957      C1958   1.403       .  A
C1957      F1960   1.357       .  S
C1958      F1962   1.357       .  S
C1965      C1966   1.403       .  A
C1965      C1970   1.401       .  A
C1965      F1983   1.358       .  S
C1966      C1971   1.478       .  S
C1966      C1967   1.401       .  A
C1967      C1968   1.399       .  A
C1967      F1972   1.358       .  S
C1968      C1969   1.415       .  A
C1968      F1984   1.358       .  S
C1969      C1970   1.413       .  A
C1970      F1973   1.358       .  S
C1971      C1974   1.402       .  A
C1971      C1978   1.401       .  A
C1974      C1975   1.401       .  A
C1974      F1979   1.358       .  S
C1975      C1976   1.413       .  A
C1975      F1981   1.358       .  S
C1976      C1977   1.415       .  A
C1977      C1978   1.399       .  A
C1977      F1980   1.358       .  S
C1978      F1982   1.358       .  S
C1985      C1986   1.405       .  A
C1985      C1990   1.397       .  A
C1985      F2003   1.358       .  S
C1986      C1991   1.484       .  S
C1986      C1987   1.408       .  A
C1987      C1988   1.402       .  A
C1987      F1992   1.358       .  S
C1988      C1989   1.406       .  A
C1988      F2004   1.358       .  S
C1989      C1990   1.407       .  A
C1990      F1993   1.358       .  S
C1991      C1994   1.407       .  A
C1991      C1998   1.405       .  A
C1994      C1995   1.399       .  A
C1994      F1999   1.358       .  S
C1995      C1996   1.407       .  A
C1995      F2001   1.358       .  S
C1996      C1997   1.409       .  A
C1997      C1998   1.400       .  A
C1997      F2000   1.358       .  S
C1998      F2002   1.358       .  S
C2005      C2006   1.409       .  A
C2005      C2010   1.405       .  A
C2005      F2023   1.357       .  S
C2006      C2011   1.481       .  S
C2006      C2007   1.404       .  A
C2007      C2008   1.393       .  A
C2007      F2012   1.358       .  S
C2008      C2009   1.405       .  A
C2008      F2024   1.359       .  S
C2009      C2010   1.405       .  A
C2010      F2013   1.357       .  S
C2011      C2014   1.409       .  A
C2011      C2018   1.405       .  A
C2014      C2015   1.403       .  A
C2014      F2019   1.358       .  S
C2015      C2016   1.403       .  A
C2015      F2021   1.358       .  S
C2016      C2017   1.403       .  A
C2017      C2018   1.396       .  A
C2017      F2020   1.358       .  S
C2018      F2022   1.358       .  S
C2025      C2026   1.410       .  A
C2025      C2030   1.405       .  A
C2025      F2043   1.358       .  S
C2026      C2031   1.491       .  S
C2026      C2027   1.407       .  A
C2027      C2028   1.397       .  A
C2027      F2032   1.358       .  S
C2028      C2029   1.406       .  A
C2028      F2044   1.358       .  S
C2029      C2030   1.408       .  A
C2030      F2033   1.358       .  S
C2031      C2034   1.409       .  A
C2031      C2038   1.408       .  A
C2034      C2035   1.403       .  A
C2034      F2039   1.358       .  S
C2035      C2036   1.409       .  A
C2035      F2041   1.358       .  S
C2036      C2037   1.407       .  A
C2037      C2038   1.399       .  A
C2037      F2040   1.358       .  S
C2038      F2042   1.358       .  S
C2045      C2046   1.405       .  A
C2045      C2050   1.394       .  A
C2045      F2063   1.358       .  S
C2046      C2051   1.477       .  S
C2046      C2047   1.408       .  A
C2047      C2048   1.401       .  A
C2047      F2052   1.358       .  S
C2048      C2049   1.403       .  A
C2048      F2064   1.358       .  S
C2049      C2050   1.402       .  A
C2050      F2053   1.358       .  S
C2051      C2054   1.404       .  A
C2051      C2058   1.408       .  A
C2054      C2055   1.390       .  A
C2054      F2059   1.359       .  S
C2055      C2056   1.404       .  A
C2055      F2061   1.359       .  S
C2056      C2057   1.404       .  A
C2057      C2058   1.403       .  A
C2057      F2060   1.358       .  S
C2058      F2062   1.357       .  S
C2065      C2066   1.402       .  A
C2065      C2070   1.397       .  A
C2065      F2083   1.358       .  S
C2066      C2071   1.481       .  S
C2066      C2067   1.404       .  A
C2067      C2068   1.403       .  A
C2067      F2072   1.358       .  S
C2068      C2069   1.412       .  A
C2068      F2084   1.357       .  S
C2069      C2070   1.412       .  A
C2070      F2073   1.358       .  S
C2071      C2074   1.405       .  A
C2071      C2078   1.406       .  A
C2074      C2075   1.399       .  A
C2074      F2079   1.358       .  S
C2075      C2076   1.406       .  A
C2075      F2081   1.358       .  S
C2076      C2077   1.406       .  A
C2077      C2078   1.401       .  A
C2077      F2080   1.358       .  S
C2078      F2082   1.358       .  S
C2085      C2086   1.402       .  A
C2085      C2090   1.401       .  A
C2085      F2103   1.358       .  S
C2086      C2091   1.476       .  S
C2086      C2087   1.400       .  A
C2087      C2088   1.399       .  A
C2087      F2092   1.358       .  S
C2088      C2089   1.417       .  A
C2088      F2104   1.358       .  S
C2089      C2090   1.413       .  A
C2090      F2093   1.357       .  S
C2091      C2094   1.402       .  A
C2091      C2098   1.400       .  A
C2094      C2095   1.401       .  A
C2094      F2099   1.358       .  S
C2095      C2096   1.413       .  A
C2095      F2101   1.358       .  S
C2096      C2097   1.414       .  A
C2097      C2098   1.399       .  A
C2097      F2100   1.358       .  S
C2098      F2102   1.358       .  S
C2105      C2106   1.403       .  A
C2105      C2110   1.400       .  A
C2105      F2123   1.358       .  S
C2106      C2111   1.474       .  S
C2106      C2107   1.405       .  A
C2107      C2108   1.395       .  A
C2107      F2112   1.358       .  S
C2108      C2109   1.406       .  A
C2108      F2124   1.358       .  S
C2109      C2110   1.409       .  A
C2110      F2113   1.358       .  S
C2111      C2114   1.403       .  A
C2111      C2118   1.404       .  A
C2114      C2115   1.399       .  A
C2114      F2119   1.358       .  S
C2115      C2116   1.410       .  A
C2115      F2121   1.358       .  S
C2116      C2117   1.407       .  A
C2117      C2118   1.395       .  A
C2117      F2120   1.358       .  S
C2118      F2122   1.358       .  S
C2125      C2126   1.405       .  A
C2125      C2130   1.399       .  A
C2125      F2143   1.358       .  S
C2126      C2131   1.485       .  S
C2126      C2127   1.405       .  A
C2127      C2128   1.399       .  A
C2127      F2132   1.358       .  S
C2128      C2129   1.412       .  A
C2128      F2144   1.358       .  S
C2129      C2130   1.413       .  A
C2130      F2133   1.358       .  S
C2131      C2134   1.406       .  A
C2131      C2138   1.406       .  A
C2134      C2135   1.401       .  A
C2134      F2139   1.358       .  S
C2135      C2136   1.411       .  A
C2135      F2141   1.358       .  S
C2136      C2137   1.411       .  A
C2137      C2138   1.397       .  A
C2137      F2140   1.358       .  S
C2138      F2142   1.358       .  S
C2145      C2146   1.402       .  A
C2145      C2150   1.401   1_554  A
C2145      F2163   1.358       .  S
C2146      C2151   1.470       .  S
C2146      C2147   1.398       .  A
C2147      C2148   1.391   1_554  A
C2147      F2152   1.359       .  S
C2148      C2149   1.414       .  A
C2148      F2164   1.358       .  S
C2149      C2150   1.413       .  A
C2150      F2153   1.358       .  S
C2151      C2154   1.401       .  A
C2151      C2158   1.401       .  A
C2154      C2155   1.393       .  A
C2154      F2159   1.358       .  S
C2155      C2156   1.409       .  A
C2155      F2161   1.358       .  S
C2156      C2157   1.411       .  A
C2157      C2158   1.398       .  A
C2157      F2160   1.358       .  S
C2158      F2162   1.358       .  S
C2165      C2166   1.400       .  A
C2165      C2170   1.399       .  A
C2165      F2183   1.358       .  S
C2166      C2171   1.467       .  S
C2166      C2167   1.399       .  A
C2167      C2168   1.392       .  A
C2167      F2172   1.358       .  S
C2168      C2169   1.411       .  A
C2168      F2184   1.358       .  S
C2169      C2170   1.413       .  A
C2170      F2173   1.358       .  S
C2171      C2174   1.400       .  A
C2171      C2178   1.399       .  A
C2174      C2175   1.397       .  A
C2174      F2179   1.358       .  S
C2175      C2176   1.412       .  A
C2175      F2181   1.358       .  S
C2176      C2177   1.413       .  A
C2177      C2178   1.396       .  A
C2177      F2180   1.358       .  S
C2178      F2182   1.358       .  S
C2185      C2186   1.409       .  A
C2185      C2190   1.401       .  A
C2185      F2203   1.358       .  S
C2186      C2191   1.491       .  S
C2186      C2187   1.409       .  A
C2187      C2188   1.403       .  A
C2187      F2192   1.358       .  S
C2188      C2189   1.405       .  A
C2188      F2204   1.358       .  S
C2189      C2190   1.405       .  A
C2190      F2193   1.358       .  S
C2191      C2194   1.407       .  A
C2191      C2198   1.407       .  A
C2194      C2195   1.403       .  A
C2194      F2199   1.358       .  S
C2195      C2196   1.410       .  A
C2195      F2201   1.358       .  S
C2196      C2197   1.411       .  A
C2197      C2198   1.401       .  A
C2197      F2200   1.358       .  S
C2198      F2202   1.358       .  S
C2205      C2206   1.405       .  A
C2205      C2210   1.399       .  A
C2205      F2223   1.358       .  S
C2206      C2211   1.485       .  S
C2206      C2207   1.408       .  A
C2207      C2208   1.401       .  A
C2207      F2212   1.358       .  S
C2208      C2209   1.407       .  A
C2208      F2224   1.358       .  S
C2209      C2210   1.409       .  A
C2210      F2213   1.358       .  S
C2211      C2214   1.406       .  A
C2211      C2218   1.407       .  A
C2214      C2215   1.399       .  A
C2214      F2219   1.358       .  S
C2215      C2216   1.408       .  A
C2215      F2221   1.358       .  S
C2216      C2217   1.406       .  A
C2217      C2218   1.400       .  A
C2217      F2220   1.358       .  S
C2218      F2222   1.358       .  S
C2225      C2226   1.401       .  A
C2225      C2230   1.399       .  A
C2225      F2243   1.358       .  S
C2226      C2231   1.468       .  S
C2226      C2227   1.400       .  A
C2227      C2228   1.393       .  A
C2227      F2232   1.359       .  S
C2228      C2229   1.412       .  A
C2228      F2244   1.358       .  S
C2229      C2230   1.412       .  A
C2230      F2233   1.358       .  S
C2231      C2234   1.400       .  A
C2231      C2238   1.399   1_556  A
C2234      C2235   1.396   1_556  A
C2234      F2239   1.358       .  S
C2235      C2236   1.412       .  A
C2235      F2241   1.358       .  S
C2236      C2237   1.415       .  A
C2237      C2238   1.396       .  A
C2237      F2240   1.358       .  S
C2238      F2242   1.358       .  S
C2245      C2246   1.404       .  A
C2245      C2250   1.395       .  A
C2245      F2263   1.358       .  S
C2246      C2251   1.481       .  S
C2246      C2247   1.405       .  A
C2247      C2248   1.405       .  A
C2247      F2252   1.357       .  S
C2248      C2249   1.410       .  A
C2248      F2264   1.358       .  S
C2249      C2250   1.408       .  A
C2250      F2253   1.358       .  S
C2251      C2254   1.403       .  A
C2251      C2258   1.405       .  A
C2254      C2255   1.395       .  A
C2254      F2259   1.358       .  S
C2255      C2256   1.409       .  A
C2255      F2261   1.358       .  S
C2256      C2257   1.410       .  A
C2257      C2258   1.405       .  A
C2257      F2260   1.358       .  S
C2258      F2262   1.357       .  S
C2265      C2266   1.403       .  A
C2265      C2270   1.401       .  A
C2265      F2283   1.358       .  S
C2266      C2271   1.481       .  S
C2266      C2267   1.403       .  A
C2267      C2268   1.397       .  A
C2267      F2272   1.358       .  S
C2268      C2269   1.413       .  A
C2268      F2284   1.358       .  S
C2269      C2270   1.414       .  A
C2270      F2273   1.358       .  S
C2271      C2274   1.404       .  A
C2271      C2278   1.402       .  A
C2274      C2275   1.399       .  A
C2274      F2279   1.358       .  S
C2275      C2276   1.412       .  A
C2275      F2281   1.358       .  S
C2276      C2277   1.415       .  A
C2277      C2278   1.398       .  A
C2277      F2280   1.358       .  S
C2278      F2282   1.358       .  S
C2285      C2286   1.407       .  A
C2285      C2290   1.396       .  A
C2285      F2303   1.358       .  S
C2286      C2291   1.487       .  S
C2286      C2287   1.409       .  A
C2287      C2288   1.404       .  A
C2287      F2292   1.358       .  S
C2288      C2289   1.408       .  A
C2288      F2304   1.358   1_556  S
C2289      C2290   1.405       .  A
C2290      F2293   1.357       .  S
C2291      C2294   1.406       .  A
C2291      C2298   1.408       .  A
C2294      C2295   1.397       .  A
C2294      F2299   1.358       .  S
C2295      C2296   1.409       .  A
C2295      F2301   1.358       .  S
C2296      C2297   1.410       .  A
C2297      C2298   1.404       .  A
C2297      F2300   1.357       .  S
C2298      F2302   1.358       .  S
C2305      C2306   1.401       .  A
C2305      C2310   1.395       .  A
C2305      F2323   1.358       .  S
C2306      C2311   1.475       .  S
C2306      C2307   1.404       .  A
C2307      C2308   1.398       .  A
C2307      F2312   1.358       .  S
C2308      C2309   1.411       .  A
C2308      F2324   1.358       .  S
C2309      C2310   1.412       .  A
C2310      F2313   1.358       .  S
C2311      C2314   1.403       .  A
C2311      C2318   1.403       .  A
C2314      C2315   1.396       .  A
C2314      F2319   1.358       .  S
C2315      C2316   1.410       .  A
C2315      F2321   1.358       .  S
C2316      C2317   1.409       .  A
C2317      C2318   1.397       .  A
C2317      F2320   1.358       .  S
C2318      F2322   1.358       .  S
C2325      C2326   1.404   1_556  A
C2325      C2330   1.401       .  A
C2325      F2343   1.358       .  S
C2326      C2331   1.471       .  S
C2326      C2327   1.401       .  A
C2327      C2328   1.394       .  A
C2327      F2332   1.358       .  S
C2328      C2329   1.407   1_554  A
C2328      F2344   1.359       .  S
C2329      C2330   1.406       .  A
C2330      F2333   1.357       .  S
C2331      C2334   1.401   1_554  A
C2331      C2338   1.403       .  A
C2334      C2335   1.394   1_556  A
C2334      F2339   1.358       .  S
C2335      C2336   1.407       .  A
C2335      F2341   1.358   1_554  S
C2336      C2337   1.409       .  A
C2337      C2338   1.401       .  A
C2337      F2340   1.358       .  S
C2338      F2342   1.358       .  S
C2345      C2346   1.408       .  A
C2345      C2350   1.401       .  A
C2345      F2363   1.358       .  S
C2346      C2351   1.482       .  S
C2346      C2347   1.405       .  A
C2347      C2348   1.397       .  A
C2347      F2352   1.358       .  S
C2348      C2349   1.405       .  A
C2348      F2364   1.358   1_556  S
C2349      C2350   1.404       .  A
C2350      F2353   1.358       .  S
C2351      C2354   1.405       .  A
C2351      C2358   1.405       .  A
C2354      C2355   1.401       .  A
C2354      F2359   1.358       .  S
C2355      C2356   1.409       .  A
C2355      F2361   1.358       .  S
C2356      C2357   1.408       .  A
C2357      C2358   1.397       .  A
C2357      F2360   1.358       .  S
C2358      F2362   1.358       .  S
C2365      C2366   1.405       .  A
C2365      C2370   1.400       .  A
C2365      F2383   1.358       .  S
C2366      C2371   1.480       .  S
C2366      C2367   1.405       .  A
C2367      C2368   1.395       .  A
C2367      F2372   1.358       .  S
C2368      C2369   1.408       .  A
C2368      F2384   1.359       .  S
C2369      C2370   1.408       .  A
C2370      F2373   1.358       .  S
C2371      C2374   1.405       .  A
C2371      C2378   1.405       .  A
C2374      C2375   1.401       .  A
C2374      F2379   1.358       .  S
C2375      C2376   1.410       .  A
C2375      F2381   1.358       .  S
C2376      C2377   1.408       .  A
C2377      C2378   1.394       .  A
C2377      F2380   1.358       .  S
C2378      F2382   1.358       .  S
C2385      C2386   1.400       .  A
C2385      C2390   1.396       .  A
C2385      F2403   1.358       .  S
C2386      C2391   1.478       .  S
C2386      C2387   1.405       .  A
C2387      C2388   1.402       .  A
C2387      F2392   1.358       .  S
C2388      C2389   1.410       .  A
C2388      F2404   1.358       .  S
C2389      C2390   1.414       .  A
C2390      F2393   1.358       .  S
C2391      C2394   1.404       .  A
C2391      C2398   1.400       .  A
C2394      C2395   1.402       .  A
C2394      F2399   1.358       .  S
C2395      C2396   1.412       .  A
C2395      F2401   1.358   1_655  S
C2396      C2397   1.415       .  A
C2397      C2398   1.396       .  A
C2397      F2400   1.358       .  S
C2398      F2402   1.358       .  S
C2405      C2406   1.400       .  A
C2405      C2410   1.397       .  A
C2405      F2423   1.358       .  S
C2406      C2411   1.466       .  S
C2406      C2407   1.401       .  A
C2407      C2408   1.393       .  A
C2407      F2412   1.358       .  S
C2408      C2409   1.408       .  A
C2408      F2424   1.358       .  S
C2409      C2410   1.412       .  A
C2410      F2413   1.358       .  S
C2411      C2414   1.400       .  A
C2411      C2418   1.400       .  A
C2414      C2415   1.398       .  A
C2414      F2419   1.358       .  S
C2415      C2416   1.413       .  A
C2415      F2421   1.358       .  S
C2416      C2417   1.410       .  A
C2417      C2418   1.391       .  A
C2417      F2420   1.358       .  S
C2418      F2422   1.358       .  S
C2425      C2426   1.402       .  A
C2425      C2430   1.397       .  A
C2425      F2443   1.358       .  S
C2426      C2431   1.467       .  S
C2426      C2427   1.399       .  A
C2427      C2428   1.392       .  A
C2427      F2432   1.358       .  S
C2428      C2429   1.412       .  A
C2428      F2444   1.358       .  S
C2429      C2430   1.410       .  A
C2430      F2433   1.358       .  S
C2431      C2434   1.401       .  A
C2431      C2438   1.401       .  A
C2434      C2435   1.397       .  A
C2434      F2439   1.358       .  S
C2435      C2436   1.410       .  A
C2435      F2441   1.358       .  S
C2436      C2437   1.409       .  A
C2437      C2438   1.392       .  A
C2437      F2440   1.357       .  S
C2438      F2442   1.358       .  S
C2445      C2446   1.405       .  A
C2445      C2450   1.400       .  A
C2445      F2463   1.358       .  S
C2446      C2451   1.475       .  S
C2446      C2447   1.404       .  A
C2447      C2448   1.395       .  A
C2447      F2452   1.358       .  S
C2448      C2449   1.406       .  A
C2448      F2464   1.358       .  S
C2449      C2450   1.407       .  A
C2450      F2453   1.358       .  S
C2451      C2454   1.404       .  A
C2451      C2458   1.405       .  A
C2454      C2455   1.393       .  A
C2454      F2459   1.358       .  S
C2455      C2456   1.406       .  A
C2455      F2461   1.359       .  S
C2456      C2457   1.407       .  A
C2457      C2458   1.401       .  A
C2457      F2460   1.358       .  S
C2458      F2462   1.357       .  S
C2465      C2466   1.407       .  A
C2465      C2470   1.399       .  A
C2465      F2483   1.358       .  S
C2466      C2471   1.481       .  S
C2466      C2467   1.407       .  A
C2467      C2468   1.396       .  A
C2467      F2472   1.358       .  S
C2468      C2469   1.404       .  A
C2468      F2484   1.358       .  S
C2469      C2470   1.404       .  A
C2470      F2473   1.358       .  S
C2471      C2474   1.407       .  A
C2471      C2478   1.405       .  A
C2474      C2475   1.399       .  A
C2474      F2479   1.358       .  S
C2475      C2476   1.406       .  A
C2475      F2481   1.358       .  S
C2476      C2477   1.407       .  A
C2477      C2478   1.395       .  A
C2477      F2480   1.358       .  S
C2478      F2482   1.358       .  S
C2485      C2486   1.402       .  A
C2485      C2490   1.400       .  A
C2485      F2503   1.358       .  S
C2486      C2491   1.473       .  S
C2486      C2487   1.399       .  A
C2487      C2488   1.395       .  A
C2487      F2492   1.358       .  S
C2488      C2489   1.415       .  A
C2488      F2504   1.358       .  S
C2489      C2490   1.413       .  A
C2490      F2493   1.358       .  S
C2491      C2494   1.403       .  A
C2491      C2498   1.401       .  A
C2494      C2495   1.397       .  A
C2494      F2499   1.358       .  S
C2495      C2496   1.409       .  A
C2495      F2501   1.358       .  S
C2496      C2497   1.411       .  A
C2497      C2498   1.399       .  A
C2497      F2500   1.358       .  S
C2498      F2502   1.358       .  S
C2505      C2506   1.401       .  A
C2505      C2510   1.400       .  A
C2505      F2523   1.358       .  S
C2506      C2511   1.468       .  S
C2506      C2507   1.399       .  A
C2507      C2508   1.392       .  A
C2507      F2512   1.358       .  S
C2508      C2509   1.413       .  A
C2508      F2524   1.358       .  S
C2509      C2510   1.413       .  A
C2510      F2513   1.358       .  S
C2511      C2514   1.399       .  A
C2511      C2518   1.401       .  A
C2514      C2515   1.394       .  A
C2514      F2519   1.358       .  S
C2515      C2516   1.412       .  A
C2515      F2521   1.358       .  S
C2516      C2517   1.412       .  A
C2517      C2518   1.399       .  A
C2517      F2520   1.358       .  S
C2518      F2522   1.358       .  S
C2525      C2526   1.400       .  A
C2525      C2530   1.396       .  A
C2525      F2543   1.358       .  S
C2526      C2531   1.466       .  S
C2526      C2527   1.398       .  A
C2527      C2528   1.396       .  A
C2527      F2532   1.358       .  S
C2528      C2529   1.415       .  A
C2528      F2544   1.358       .  S
C2529      C2530   1.413       .  A
C2530      F2533   1.358       .  S
C2531      C2534   1.401       .  A
C2531      C2538   1.400       .  A
C2534      C2535   1.397       .  A
C2534      F2539   1.358       .  S
C2535      C2536   1.408       .  A
C2535      F2541   1.358       .  S
C2536      C2537   1.408       .  A
C2537      C2538   1.395       .  A
C2537      F2540   1.358       .  S
C2538      F2542   1.358       .  S
C2545      C2546   1.403       .  A
C2545      C2550   1.397       .  A
C2545      F2563   1.358       .  S
C2546      C2551   1.471       .  S
C2546      C2547   1.403       .  A
C2547      C2548   1.398       .  A
C2547      F2552   1.358       .  S
C2548      C2549   1.406       .  A
C2548      F2564   1.358       .  S
C2549      C2550   1.406       .  A
C2550      F2553   1.358       .  S
C2551      C2554   1.401       .  A
C2551      C2558   1.402       .  A
C2554      C2555   1.393       .  A
C2554      F2559   1.358       .  S
C2555      C2556   1.410       .  A
C2555      F2561   1.358       .  S
C2556      C2557   1.412       .  A
C2557      C2558   1.401       .  A
C2557      F2560   1.358       .  S
C2558      F2562   1.358       .  S
C2565      C2566   1.407       .  A
C2565      C2570   1.401       .  A
C2565      F2583   1.358       .  S
C2566      C2571   1.476       .  S
C2566      C2567   1.404       .  A
C2567      C2568   1.394       .  A
C2567      F2572   1.358       .  S
C2568      C2569   1.403       .  A
C2568      F2584   1.359       .  S
C2569      C2570   1.403       .  A
C2570      F2573   1.358       .  S
C2571      C2574   1.407       .  A
C2571      C2578   1.403       .  A
C2574      C2575   1.403       .  A
C2574      F2579   1.357       .  S
C2575      C2576   1.405       .  A
C2575      F2581   1.357       .  S
C2576      C2577   1.406       .  A
C2577      C2578   1.393       .  A
C2577      F2580   1.359       .  S
C2578      F2582   1.359       .  S
C2585      C2586   1.403       .  A
C2585      C2590   1.395       .  A
C2585      F2603   1.358       .  S
C2586      C2591   1.478       .  S
C2586      C2587   1.404       .  A
C2587      C2588   1.399       .  A
C2587      F2592   1.358       .  S
C2588      C2589   1.411       .  A
C2588      F2604   1.358       .  S
C2589      C2590   1.412       .  A
C2590      F2593   1.358       .  S
C2591      C2594   1.403       .  A
C2591      C2598   1.405       .  A
C2594      C2595   1.399       .  A
C2594      F2599   1.358       .  S
C2595      C2596   1.412       .  A
C2595      F2601   1.358       .  S
C2596      C2597   1.409       .  A
C2597      C2598   1.396       .  A
C2597      F2600   1.358       .  S
C2598      F2602   1.358       .  S
C2605      C2606   1.400       .  A
C2605      C2610   1.398       .  A
C2605      F2623   1.358       .  S
C2606      C2611   1.473       .  S
C2606      C2607   1.401       .  A
C2607      C2608   1.398       .  A
C2607      F2612   1.358       .  S
C2608      C2609   1.412       .  A
C2608      F2624   1.358       .  S
C2609      C2610   1.414       .  A
C2610      F2613   1.358       .  S
C2611      C2614   1.399       .  A
C2611      C2618   1.402       .  A
C2614      C2615   1.395       .  A
C2614      F2619   1.358       .  S
C2615      C2616   1.414       .  A
C2615      F2621   1.358       .  S
C2616      C2617   1.413       .  A
C2617      C2618   1.401       .  A
C2617      F2620   1.358       .  S
C2618      F2622   1.358       .  S
