geometry optimzed in LAMMPS
_audit_creation_date              2020-11-30 
_audit_creation_method            'lammps2cif' 
_symmetry_space_group_name_H-M    'P1' 
_symmetry_Int_Tables_number       1 
_symmetry_cell_setting            triclinic 
loop_ 
_symmetry_equiv_pos_as_xyz 
  x,y,z 
_cell_length_a                    37.888864893295214 
_cell_length_b                    37.55412271943251 
_cell_length_c                    39.00207596744837 
_cell_angle_alpha                 89.50935684700892 
_cell_angle_beta                  90.1980344438955 
_cell_angle_gamma                 120.78364743955913 
loop_ 
_atom_site_label 
_atom_site_type_symbol 
_atom_site_fract_x 
_atom_site_fract_y 
_atom_site_fract_z 
_atom_site_charge 
Fe1        Fe  0.46724430  0.88197683  0.11325448     1.65780
Fe2        Fe  0.44326836  0.78420882  0.12873011     1.73250
Fe3        Fe  0.54279172  0.86349443  0.13475465     1.54410
O4          O  0.55765565  0.90480011  0.09235852    -0.81820
O5          O  0.46851138  0.77130766  0.17161859    -0.80130
O6          O  0.49797626  0.89278801  0.06886522    -0.84330
O7          O  0.51910610  0.93094017  0.13205657    -0.79180
O8          O  0.54325732  0.82252827  0.09911541    -0.80960
O9          O  0.40843657  0.79902167  0.15989910    -0.83700
C10         C  0.53069390  0.93231812  0.16225206     0.97060
C11         C  0.53634248  0.90610622  0.06709041     1.04500
O12         O  0.48440626  0.84230487  0.12565178    -1.12690
O13         O  0.41167640  0.78467901  0.08513186    -0.75120
O14         O  0.41234403  0.84299089  0.09119761    -0.78600
O15         O  0.54406283  0.90824880  0.17088977    -0.79290
C16         C  0.39620624  0.80706642  0.07949935     0.95970
O17         O  0.43809877  0.86846482  0.15904916    -0.77250
O18         O  0.47717288  0.77092746  0.09762328    -0.82440
C19         C  0.50365748  0.78482681  0.18551531     0.98590
C20         C  0.51413944  0.78842935  0.08722900     1.04510
O21         O  0.53496713  0.81930144  0.17511276    -0.78090
C22         C  0.42064708  0.83372476  0.17453411     1.02810
Fe23       Fe  0.47083418  0.57145817  0.11606486     1.65780
Fe24       Fe  0.39739460  0.59358421  0.12703161     1.73250
Fe25       Fe  0.37659382  0.49472098  0.13500636     1.54410
O26         O  0.40168120  0.48322674  0.08907734    -0.81820
O27         O  0.35948520  0.56795267  0.17037712    -0.80130
O28         O  0.45349455  0.54497802  0.06951406    -0.84330
O29         O  0.46509515  0.51719776  0.13117145    -0.79180
O30         O  0.33295312  0.49233338  0.10105113    -0.80960
O31         O  0.44698156  0.62973129  0.15886909    -0.83700
C32         C  0.45617128  0.50571919  0.16146219     0.97060
C33         C  0.42605269  0.50705934  0.06477292     1.04500
O34         O  0.41367817  0.55310963  0.12574392    -1.12690
O35         O  0.43072380  0.62349182  0.08299357    -0.75120
O36         O  0.48892529  0.62849905  0.09721069    -0.78600
O37         O  0.41984832  0.49439568  0.17121470    -0.79290
C38         C  0.46939459  0.64131940  0.08043451     0.95970
O39         O  0.48127667  0.59583325  0.16414568    -0.77250
O40         O  0.34973717  0.55868374  0.09529512    -0.82440
C41         C  0.34049963  0.53359411  0.18682415     0.98590
C42         C  0.32850302  0.52066414  0.08719365     1.04510
O43         O  0.34487283  0.50301965  0.17788615    -0.78090
C44         C  0.46624867  0.61651437  0.17688616     1.02810
Fe45       Fe  0.15584082  0.55515240  0.12642428     1.65780
Fe46       Fe  0.25078355  0.63538220  0.13280603     1.73250
Fe47       Fe  0.16990488  0.65074218  0.13437324     1.54410
O48         O  0.13219693  0.61858419  0.09051947    -0.81820
O49         O  0.26037494  0.67417567  0.17445149    -0.80130
O50         O  0.14153261  0.56520024  0.07881496    -0.84330
O51         O  0.10500526  0.55365240  0.14335902    -0.79180
O52         O  0.21150249  0.69350044  0.09875215    -0.80960
O53         O  0.24041040  0.58789808  0.16620445    -0.83700
C54         C  0.10108868  0.57264227  0.16782385     0.97060
C55         C  0.13001641  0.59045444  0.07002107     1.04500
O56         O  0.19266110  0.61483212  0.13117535    -1.12690
O57         O  0.24802372  0.60122626  0.09006874    -0.75120
O58         O  0.19695473  0.54143743  0.10755620    -0.78600
O59         O  0.12575871  0.61135176  0.17134112    -0.79290
C60         C  0.22744572  0.56209191  0.08850081     0.95970
O61         O  0.17260763  0.54984338  0.17470847    -0.77250
O62         O  0.26367945  0.68184121  0.09967649    -0.82440
C63         C  0.24340118  0.69255603  0.18808110     0.98590
C64         C  0.24635312  0.70067853  0.08824984     1.04510
O65         O  0.20887249  0.68668958  0.17656068    -0.78090
C66         C  0.20939899  0.56904937  0.18592669     1.02810
Fe67       Fe  0.46829220  0.88416030  0.38113835     1.65780
Fe68       Fe  0.39577213  0.78803035  0.36373745     1.73250
Fe69       Fe  0.37338802  0.86465596  0.36688415     1.54410
O70         O  0.40012679  0.89787961  0.41352247    -0.81820
O71         O  0.35830874  0.77902864  0.32194513    -0.80130
O72         O  0.45120267  0.88630231  0.42956963    -0.84330
O73         O  0.46010271  0.93250732  0.37384184    -0.79180
O74         O  0.33166883  0.81792706  0.39996401    -0.80960
O75         O  0.44498656  0.80914784  0.33051431    -0.83700
C76         C  0.45370705  0.93853134  0.34395211     0.97060
C77         C  0.42560627  0.89809540  0.43602651     1.04500
O78         O  0.41100194  0.84433144  0.37112015    -1.12690
O79         O  0.42923539  0.78834650  0.40586072    -0.75120
O80         O  0.48779047  0.84364084  0.39266723    -0.78600
O81         O  0.41687519  0.91556514  0.33342718    -0.79290
C82         C  0.46794100  0.80888936  0.40723950     0.95970
O83         O  0.47639499  0.87813940  0.33023769    -0.77250
O84         O  0.34836407  0.76863324  0.39645157    -0.82440
C85         C  0.33782878  0.79414074  0.30918964     0.98590
C86         C  0.32821421  0.78366439  0.40958805     1.04510
O87         O  0.33968621  0.82648748  0.32267274    -0.78090
C88         C  0.45970881  0.84379613  0.31480213     1.02810
Fe89       Fe  0.44506150  0.54437991  0.37399314     1.65780
Fe90       Fe  0.42976839  0.62265193  0.36178360     1.73250
Fe91       Fe  0.52612937  0.63906835  0.36073725     1.54420
O92         O  0.53007602  0.61054575  0.40877409    -0.81820
O93         O  0.45897126  0.66023083  0.31936031    -0.80130
O94         O  0.46569064  0.55876510  0.42220844    -0.84330
O95         O  0.49916156  0.54820215  0.36465667    -0.79180
O96         O  0.52817345  0.68479636  0.39204483    -0.80960
O97         O  0.39582557  0.57267835  0.32984327    -0.83700
C98         C  0.51348055  0.55795998  0.33527510     0.97060
C99         C  0.50266705  0.58483190  0.43074952     1.04500
O100        O  0.46754401  0.60362496  0.36603974    -1.12690
O101        O  0.39811212  0.58909989  0.40515084    -0.75120
O102        O  0.38748448  0.52916482  0.38781349    -0.78600
O103        O  0.52807823  0.59551928  0.32622652    -0.79290
C104        C  0.37772708  0.54990236  0.40636976     0.95970
O105        O  0.42724966  0.53710659  0.32366145    -0.77250
O106        O  0.46325066  0.67132268  0.39334221    -0.82440
C107        C  0.49401628  0.67814855  0.30473464     0.98590
C108        C  0.50072443  0.69232901  0.40223491     1.04510
O109        O  0.52284333  0.67222932  0.31586173    -0.78090
C110        C  0.41394697  0.55937364  0.31095125     1.02810
Fe111      Fe  0.14853527  0.57700208  0.37395928     1.65780
Fe112      Fe  0.24310432  0.59187455  0.36407698     1.73250
Fe113      Fe  0.16038404  0.49426252  0.35762330     1.54410
O114        O  0.12195534  0.48237734  0.40160364    -0.81820
O115        O  0.25177674  0.56903959  0.31794690    -0.80130
O116        O  0.12991879  0.54337405  0.41823705    -0.84330
O117        O  0.09907157  0.53229733  0.34939424    -0.79180
O118        O  0.19957299  0.49020294  0.39218511    -0.80960
O119        O  0.23316352  0.63454145  0.33905227    -0.83700
C120        C  0.09222350  0.50564231  0.32704771     0.97060
C121        C  0.11912436  0.50576893  0.42420224     1.04500
O122        O  0.18404740  0.55376075  0.36465187    -1.12690
O123        O  0.24130856  0.61647042  0.41086327    -0.75120
O124        O  0.19038001  0.62715619  0.40059023    -0.78600
O125        O  0.11538202  0.49047552  0.32308428    -0.79290
C126        C  0.22268001  0.63580460  0.41646836     0.95970
O127        O  0.16765357  0.61007506  0.32890304    -0.77250
O128        O  0.25538955  0.55335616  0.39109688    -0.82440
C129        C  0.23595503  0.53346803  0.30377865     0.98590
C130        C  0.23538379  0.51644523  0.40223524     1.04510
O131        O  0.20165643  0.50253783  0.31510940    -0.78090
C132        C  0.20372592  0.62250411  0.31810694     1.02810
Fe133      Fe  0.57439485  0.44154137  0.37267509     1.65780
Fe134      Fe  0.60517693  0.37390574  0.35906844     1.73250
Fe135      Fe  0.50398372  0.34204018  0.35437111     1.54420
O136        O  0.48807189  0.36557593  0.39777046    -0.81820
O137        O  0.58310850  0.33728050  0.31502535    -0.80130
O138        O  0.54681973  0.41986307  0.41823832    -0.84330
O139        O  0.51969604  0.43125786  0.35479670    -0.79180
O140        O  0.50762218  0.30241497  0.38908533    -0.80960
O141        O  0.63666389  0.42750489  0.32914689    -0.83700
C142        C  0.50628102  0.41733530  0.32551501     0.97060
C143        C  0.50964040  0.39073603  0.42198439     1.04500
O144        O  0.56110485  0.38488261  0.36191091    -1.12690
O145        O  0.63243869  0.40650488  0.40345542    -0.75120
O146        O  0.63195195  0.46354184  0.39250553    -0.78600
O147        O  0.49710407  0.38065651  0.31819608    -0.79290
C148        C  0.64882366  0.44535555  0.40569206     0.95970
O149        O  0.60028272  0.45930150  0.32580353    -0.77250
O150        O  0.57450711  0.32243524  0.38963663    -0.82440
C151        C  0.54820189  0.31294852  0.30143299     0.98590
C152        C  0.53760998  0.29926057  0.39982437     1.04510
O153        O  0.51547467  0.31111025  0.31303553    -0.78090
C154        C  0.61966821  0.44385228  0.31199687     1.02810
Fe155      Fe  0.90032459  0.44278153  0.38159181     1.65780
Fe156      Fe  0.80557721  0.41917530  0.36251486     1.73250
Fe157      Fe  0.88394789  0.51864328  0.35745106     1.54410
O158        O  0.91717130  0.53103378  0.40553537    -0.81820
O159        O  0.79805517  0.44240383  0.31624136    -0.80130
O160        O  0.90454728  0.46908762  0.42701185    -0.84330
O161        O  0.94945314  0.49818684  0.36928250    -0.79180
O162        O  0.83834958  0.51999283  0.38693694    -0.80960
O163        O  0.82439696  0.38372632  0.33680398    -0.83700
C164        C  0.95443337  0.50738826  0.33848331     0.97060
C165        C  0.91485349  0.50694426  0.43067721     1.04500
O166        O  0.86208042  0.46059390  0.36764452    -1.12690
O167        O  0.80600509  0.39333503  0.40946941    -0.75120
O168        O  0.85843288  0.38545071  0.39962499    -0.78600
O169        O  0.93108864  0.51913579  0.32547675    -0.79290
C170        C  0.82517697  0.37447677  0.41484883     0.95970
O171        O  0.89223183  0.41891755  0.33299958    -0.77250
O172        O  0.78727021  0.45341415  0.38826139    -0.82440
C173        C  0.81362649  0.47735518  0.30091360     0.98590
C174        C  0.80272945  0.49111781  0.39653844     1.04510
O175        O  0.84703318  0.50897287  0.31204583    -0.78090
C176        C  0.85703767  0.40097761  0.31879053     1.02810
Fe177      Fe  0.57513874  0.11743849  0.37392159     1.65780
Fe178      Fe  0.64521074  0.21548919  0.35808550     1.73250
Fe179      Fe  0.67413187  0.14449331  0.36384923     1.54420
O180        O  0.64584614  0.10761271  0.40992510    -0.81820
O181        O  0.68333490  0.22726307  0.31613235    -0.80130
O182        O  0.59213328  0.11540085  0.42185387    -0.84330
O183        O  0.58523346  0.07107856  0.36281473    -0.79180
O184        O  0.71149073  0.19019581  0.39794648    -0.80960
O185        O  0.59434901  0.19161313  0.32560650    -0.83700
C186        C  0.60021188  0.06981860  0.33465412     0.97060
C187        C  0.61904341  0.10680895  0.43118030     1.04500
O188        O  0.63263656  0.15997227  0.36486524    -1.12690
O189        O  0.61169499  0.21139887  0.40101315    -0.75120
O190        O  0.55392239  0.15534124  0.38790167    -0.78600
O191        O  0.63754583  0.09664917  0.32826188    -0.79290
C192        C  0.57325005  0.18872742  0.40403074     0.95970
O193        O  0.56245616  0.12248650  0.32466466    -0.77250
O194        O  0.69414704  0.23852327  0.39049211    -0.82440
C195        C  0.70794551  0.21587992  0.30592151     0.98590
C196        C  0.71488431  0.22475707  0.40506583     1.04510
O197        O  0.70869923  0.18537978  0.32093044    -0.78090
C198        C  0.57978200  0.15735116  0.30955339     1.02810
Fe199      Fe  0.57652150  0.44099549  0.11450622     1.65780
Fe200      Fe  0.64997380  0.41831479  0.12887788     1.73250
Fe201      Fe  0.67339663  0.51786058  0.13321194     1.54420
O202        O  0.64644626  0.53208079  0.09107140    -0.81820
O203        O  0.68580838  0.44197123  0.17288926    -0.80130
O204        O  0.59637583  0.47140355  0.06957208    -0.84330
O205        O  0.58084804  0.49290266  0.13434128    -0.79180
O206        O  0.71383477  0.51828565  0.09721126    -0.80960
O207        O  0.59726494  0.38224042  0.15803322    -0.83700
C208        C  0.59547027  0.50773606  0.16323353     0.97060
C209        C  0.62251773  0.50993255  0.06652890     1.04500
O210        O  0.63415069  0.45924932  0.12583079    -1.12690
O211        O  0.62011876  0.39095280  0.08384315    -0.75120
O212        O  0.56032675  0.38512117  0.09270467    -0.78600
O213        O  0.63295110  0.51985730  0.16996655    -0.79290
C214        C  0.58174305  0.37198845  0.07956304     0.95970
O215        O  0.55933863  0.41225961  0.16054619    -0.77250
O216        O  0.70026811  0.45274874  0.09921803    -0.82440
C217        C  0.70941229  0.47794418  0.18530189     0.98590
C218        C  0.71987378  0.48957087  0.08744425     1.04510
O219        O  0.70827133  0.50956659  0.17357411    -0.78090
C220        C  0.57803555  0.39618449  0.17479542     1.02810
Fe221      Fe  0.59163243  0.11984443  0.11204046     1.65780
Fe222      Fe  0.61584843  0.21742676  0.12833210     1.73250
Fe223      Fe  0.51625883  0.14007412  0.12994629     1.54420
O224        O  0.50360697  0.10134724  0.08581769    -0.81820
O225        O  0.59044737  0.22810309  0.17191508    -0.80130
O226        O  0.56413071  0.11166405  0.06625703    -0.84330
O227        O  0.53863744  0.07046887  0.12962228    -0.79180
O228        O  0.51825942  0.18430015  0.09589052    -0.80960
O229        O  0.64918011  0.19858430  0.15828072    -0.83700
C230        C  0.52427926  0.06906265  0.15880028     0.97060
C231        C  0.52636962  0.09967759  0.06195508     1.04500
O232        O  0.57441931  0.15993698  0.12347476    -1.12690
O233        O  0.64547272  0.21691066  0.08404605    -0.75120
O234        O  0.64782700  0.16027457  0.09194252    -0.78600
O235        O  0.51199189  0.09416157  0.16579462    -0.79290
C236        C  0.66252455  0.19592143  0.07933301     0.95970
O237        O  0.61798189  0.12942848  0.15883228    -0.77250
O238        O  0.58411439  0.23590338  0.09825257    -0.82440
C239        C  0.55437873  0.21441045  0.18397973     0.98590
C240        C  0.54756621  0.22024296  0.08721190     1.04510
O241        O  0.52350313  0.18114528  0.17175123    -0.78090
C242        C  0.63400668  0.16388063  0.17413471     1.02810
Fe243      Fe  0.89939236  0.45605523  0.11825832     1.65780
Fe244      Fe  0.80430474  0.37796913  0.13064814     1.73250
Fe245      Fe  0.88458891  0.36225188  0.13552016     1.54410
O246        O  0.92115589  0.39043445  0.08986428    -0.81930
O247        O  0.79413119  0.34005196  0.17325773    -0.80130
O248        O  0.90892772  0.44045181  0.07132705    -0.84330
O249        O  0.94923766  0.45375127  0.13251552    -0.79180
O250        O  0.84284083  0.31747709  0.10189465    -0.80960
O251        O  0.81777806  0.42690507  0.16303647    -0.83700
C252        C  0.95217959  0.44347385  0.16227133     0.97060
C253        C  0.92103458  0.41485097  0.06606831     1.04500
O254        O  0.86172947  0.39744374  0.12772721    -1.12690
O255        O  0.80571745  0.41079629  0.08704766    -0.75120
O256        O  0.85847696  0.47113903  0.10043352    -0.78600
O257        O  0.92811977  0.40597246  0.17125911    -0.79290
C258        C  0.82581387  0.44981636  0.08409220     0.95970
O259        O  0.88629503  0.46499033  0.16686342    -0.77250
O260        O  0.79142308  0.33064040  0.09885377    -0.82440
C261        C  0.81066135  0.32217249  0.18865331     0.98590
C262        C  0.80880091  0.31096673  0.08963599     1.04510
O263        O  0.84581865  0.32842535  0.17876392    -0.78090
C264        C  0.85072793  0.44626535  0.18065533     1.02810
Fe265      Fe  0.44425625  0.86551573  0.63061873     1.65780
Fe266      Fe  0.36235418  0.77172572  0.64087666     1.73250
Fe267      Fe  0.35027492  0.85465616  0.63364005     1.54420
O268        O  0.39751904  0.91211693  0.65773754    -0.81820
O269        O  0.33327804  0.76436470  0.59635851    -0.80130
O270        O  0.44328365  0.89529247  0.67230765    -0.84330
O271        O  0.44144901  0.90727005  0.59668295    -0.79180
O272        O  0.31937572  0.82472764  0.67955138    -0.80960
O273        O  0.41067719  0.77234486  0.61389279    -0.83700
C274        C  0.41172920  0.90244086  0.57791377     0.97060
C275        C  0.43307399  0.92189865  0.67011837     1.04500
O276        O  0.38518585  0.83073704  0.63484868    -1.12690
O277        O  0.39241516  0.78161401  0.68623850    -0.75120
O278        O  0.45172028  0.82667334  0.66331700    -0.78600
O279        O  0.37472999  0.88122458  0.58760421    -0.79290
C280        C  0.42851167  0.81224197  0.68920574     0.95970
O281        O  0.44643189  0.83438782  0.58917931    -0.77250
O282        O  0.31074299  0.76233517  0.66910196    -0.82440
C283        C  0.30818941  0.77584768  0.58813574     0.98590
C284        C  0.30286707  0.78595081  0.68679447     1.04510
O285        O  0.30503105  0.80348860  0.60483884    -0.78090
C286        C  0.43877574  0.79781092  0.59347640     1.02810
Fe287      Fe  0.45910421  0.56623536  0.64477802     1.65780
Fe288      Fe  0.44661990  0.64496190  0.62907934     1.73250
Fe289      Fe  0.54156794  0.66077617  0.63334400     1.54410
O290        O  0.55729378  0.61562151  0.65034277    -0.81820
O291        O  0.47951938  0.67248563  0.58589348    -0.80130
O292        O  0.50345394  0.58425805  0.67989354    -0.84330
O293        O  0.49193673  0.56852564  0.59903551    -0.79180
O294        O  0.53784445  0.68529241  0.68099447    -0.80960
O295        O  0.40501466  0.59744822  0.59733048    -0.83700
C296        C  0.51650108  0.59784133  0.57792444     0.97060
C297        C  0.53302995  0.58384446  0.66775705     1.04500
O298        O  0.48143227  0.62331534  0.63548690    -1.12690
O299        O  0.41161585  0.61507244  0.67109616    -0.75120
O300        O  0.42830037  0.56870994  0.68717430    -0.78600
O301        O  0.53838619  0.63593610  0.58648479    -0.79290
C302        C  0.42207550  0.59816964  0.69397834     0.95970
O303        O  0.40903994  0.54306585  0.61434143    -0.77250
O304        O  0.48567726  0.69369691  0.66310968    -0.82440
C305        C  0.51112443  0.70722634  0.58999449     0.98590
C306        C  0.51441369  0.70082788  0.68486458     1.04510
O307        O  0.53841174  0.71047893  0.61087113    -0.78090
C308        C  0.39205915  0.55875182  0.59730755     1.02810
Fe309      Fe  0.16553886  0.57534285  0.61367363     1.65780
Fe310      Fe  0.25404081  0.57732885  0.61278389     1.73250
Fe311      Fe  0.16704720  0.48893266  0.63078571     1.54420
O312        O  0.11438285  0.48776667  0.65344022    -0.81820
O313        O  0.24063045  0.53682984  0.57407616    -0.80130
O314        O  0.13922278  0.55397974  0.65967357    -0.84330
O315        O  0.11949692  0.52523062  0.58533014    -0.79180
O316        O  0.20061502  0.50277279  0.67718799    -0.80960
O317        O  0.25544955  0.62094157  0.57825250    -0.83700
C318        C  0.12186141  0.49651945  0.56972135     0.97060
C319        C  0.10972632  0.51781052  0.66264798     1.04500
O320        O  0.19559863  0.54783815  0.62008335    -1.12690
O321        O  0.26428065  0.61726791  0.65056403    -0.75120
O322        O  0.21130855  0.62597357  0.64083949    -0.78600
O323        O  0.13862280  0.47803568  0.58368891    -0.79290
C324        C  0.23743507  0.62495942  0.66120048     0.95970
O325        O  0.19052147  0.59916597  0.56711218    -0.77250
O326        O  0.26161759  0.54032884  0.65119839    -0.82440
C327        C  0.23698006  0.50268361  0.58234969     0.98590
C328        C  0.24013653  0.52070778  0.67787353     1.04510
O329        O  0.21292622  0.48123454  0.60689708    -0.78090
C330        C  0.22796393  0.62552203  0.56363637     1.02810
Fe331      Fe  0.46231242  0.87011159  0.88048255     1.65780
Fe332      Fe  0.44612971  0.77857747  0.85675734     1.73250
Fe333      Fe  0.54394726  0.85915848  0.86320022     1.54420
O334        O  0.55568094  0.91958480  0.84442308    -0.81820
O335        O  0.46840944  0.76516700  0.89787881    -0.80130
O336        O  0.49266179  0.90926920  0.84229764    -0.84330
O337        O  0.50746545  0.90246977  0.91683154    -0.79180
O338        O  0.53934158  0.83267658  0.81404778    -0.80960
O339        O  0.39854649  0.77554952  0.88616304    -0.83700
C340        C  0.53835187  0.90085590  0.92766188     0.97060
C341        C  0.53055736  0.93301849  0.84009442     1.04500
O342        O  0.48497190  0.83637165  0.86717176    -1.12690
O343        O  0.42755816  0.79675530  0.81523108    -0.75120
O344        O  0.41689418  0.84001306  0.84491292    -0.78600
O345        O  0.55393079  0.88333337  0.91124998    -0.79290
C346        C  0.42594766  0.82950033  0.81704992     0.95970
O347        O  0.42733346  0.83088865  0.91899327    -0.77250
O348        O  0.48533575  0.77021245  0.82480058    -0.82440
C349        C  0.50549874  0.77621485  0.90445782     0.98590
C350        C  0.51575316  0.79447145  0.80603282     1.04510
O351        O  0.53637790  0.80473209  0.88754604    -0.78090
C352        C  0.39661941  0.79677633  0.91052401     1.02810
Fe353      Fe  0.45613292  0.57943415  0.87569071     1.65780
Fe354      Fe  0.36978974  0.58070948  0.87000004     1.73250
Fe355      Fe  0.36871197  0.49338904  0.85508259     1.54420
O356        O  0.42311417  0.49458210  0.83645243    -0.81820
O357        O  0.33790263  0.54018819  0.90811062    -0.80130
O358        O  0.46502604  0.56116506  0.82965054    -0.84330
O359        O  0.44902007  0.52772243  0.90378280    -0.79180
O360        O  0.35244987  0.50749470  0.80696228    -0.80960
O361        O  0.41010814  0.62336191  0.90625600    -0.83700
C362        C  0.41648440  0.49947606  0.91890776     0.97060
C363        C  0.45881737  0.52522463  0.82850296     1.04500
O364        O  0.39876179  0.55178209  0.86585949    -1.12690
O365        O  0.40395024  0.62014132  0.83286471    -0.75120
O366        O  0.46611452  0.63280956  0.84897291    -0.78600
O367        O  0.38192593  0.48152997  0.90368237    -0.79290
C368        C  0.44224476  0.63675845  0.82791936     0.95970
O369        O  0.44944185  0.59881268  0.92205679    -0.77250
O370        O  0.32733408  0.54428583  0.83025868    -0.82440
C371        C  0.30843339  0.50521696  0.89966560     0.98590
C372        C  0.33020818  0.52434306  0.80468802     1.04510
O373        O  0.31286626  0.48459354  0.87578440    -0.78090
C374        C  0.43957710  0.62580771  0.92396563     1.02810
Fe375      Fe  0.13896343  0.56295269  0.85799122     1.65780
Fe376      Fe  0.23282947  0.64374336  0.86303523     1.73250
Fe377      Fe  0.15314581  0.65785761  0.86729378     1.54410
O378        O  0.09136968  0.61333793  0.85072716    -0.81820
O379        O  0.23273755  0.66804445  0.90898643    -0.80130
O380        O  0.11284747  0.58031117  0.82244229    -0.84330
O381        O  0.10839648  0.56630716  0.90318977    -0.79180
O382        O  0.17727065  0.68109796  0.81832584    -0.80960
O383        O  0.23140813  0.59418341  0.88917349    -0.83700
C384        C  0.11530072  0.59590410  0.92403977     0.97060
C385        C  0.08322906  0.58143773  0.83371657     1.04500
O386        O  0.17526139  0.62065611  0.86358901    -1.12690
O387        O  0.23169191  0.61830442  0.81776282    -0.75120
O388        O  0.16965405  0.56029145  0.81510063    -0.78600
O389        O  0.13303534  0.63387929  0.91484043    -0.79290
C390        C  0.20374098  0.58756627  0.80182366     0.95970
O391        O  0.16654223  0.54180357  0.88975276    -0.77250
O392        O  0.24049250  0.69537742  0.83317882    -0.82440
C393        C  0.23357740  0.70187944  0.90856831     0.98590
C394        C  0.21602836  0.69882729  0.81217297     1.04510
O395        O  0.20847386  0.70622068  0.88947914    -0.78090
C396        C  0.20399981  0.55694010  0.89653914     1.02810
Fe397      Fe  0.58245658  0.43562798  0.61458268     1.65780
Fe398      Fe  0.60061578  0.36185999  0.63862238     1.73250
Fe399      Fe  0.50260866  0.33856072  0.62939215     1.54410
O400        O  0.48735193  0.38456240  0.64604519    -0.81820
O401        O  0.58110333  0.32649954  0.59626726    -0.80130
O402        O  0.54945070  0.43920893  0.65210713    -0.84330
O403        O  0.53831743  0.42102671  0.57642801    -0.79180
O404        O  0.50654500  0.31744286  0.67942377    -0.80960
O405        O  0.64884481  0.41067813  0.61152406    -0.83700
C406        C  0.50982334  0.38681736  0.56418839     0.97060
C407        C  0.51157078  0.42359096  0.65169281     1.04500
O408        O  0.56121309  0.37826440  0.62686694    -1.12690
O409        O  0.61550305  0.39739472  0.68095854    -0.75120
O410        O  0.62637180  0.45289305  0.65206072    -0.78600
O411        O  0.49494705  0.35270798  0.58034963    -0.79290
C412        C  0.61710745  0.43189351  0.67965456     0.95970
O413        O  0.62049744  0.43620466  0.57744274    -0.77250
O414        O  0.56085927  0.31125955  0.66946863    -0.82440
C415        C  0.54437149  0.29727695  0.59094049     0.98590
C416        C  0.53084346  0.30464170  0.68843233     1.04510
O417        O  0.51323052  0.29354181  0.60741209    -0.78090
C418        C  0.65156924  0.43538040  0.58779388     1.02810
Fe419      Fe  0.89149292  0.43980553  0.62708232     1.65780
Fe420      Fe  0.80118049  0.43365776  0.62946330     1.73250
Fe421      Fe  0.88682197  0.52596264  0.63852275     1.54420
O422        O  0.94368339  0.53293012  0.65828106    -0.81820
O423        O  0.80515147  0.46844100  0.58842472    -0.80130
O424        O  0.92060923  0.46838057  0.67021365    -0.84330
O425        O  0.93100723  0.48692873  0.59192260    -0.79180
O426        O  0.85788140  0.51619529  0.68664359    -0.80960
O427        O  0.79832876  0.38710561  0.59802649    -0.83700
C428        C  0.92514315  0.51363392  0.57606371     0.97060
C429        C  0.95024892  0.50438232  0.66859821     1.04500
O430        O  0.85981681  0.46599233  0.63173963    -1.12690
O431        O  0.79874888  0.40012675  0.66991934    -0.75120
O432        O  0.85314202  0.39251989  0.66133073    -0.78600
O433        O  0.91059403  0.53352019  0.59057064    -0.79290
C434        C  0.82316011  0.38849240  0.67939403     0.95970
O435        O  0.86245809  0.40668836  0.58474710    -0.77250
O436        O  0.79552675  0.47318312  0.66499131    -0.82440
C437        C  0.81045984  0.50393976  0.59367721     0.98590
C438        C  0.81846371  0.49691689  0.68922421     1.04510
O439        O  0.83678261  0.52826717  0.61575462    -0.78090
C440        C  0.82471469  0.38045522  0.58401553     1.02810
Fe441      Fe  0.58323797  0.13041235  0.62908450     1.65780
Fe442      Fe  0.66633584  0.22299948  0.63224849     1.73250
Fe443      Fe  0.67537757  0.13973815  0.63934972     1.54420
O444        O  0.62461442  0.08048564  0.65826267    -0.81820
O445        O  0.69646986  0.22116648  0.59078008    -0.80130
O446        O  0.58667335  0.10503603  0.67313425    -0.84330
O447        O  0.59191635  0.09113703  0.59602537    -0.79180
O448        O  0.69311972  0.16725506  0.68819078    -0.80960
O449        O  0.62290649  0.22256659  0.59900468    -0.83700
C450        C  0.62345110  0.09837295  0.57825294     0.97060
C451        C  0.59023510  0.07439075  0.66959035     1.04500
O452        O  0.64131963  0.16454968  0.63325882    -1.12690
O453        O  0.63385160  0.22206400  0.67290655    -0.75120
O454        O  0.57177047  0.16765581  0.66097039    -0.78600
O455        O  0.65948069  0.11675135  0.59077537    -0.79290
C456        C  0.59686957  0.19651472  0.68074047     0.95970
O457        O  0.57790361  0.15721332  0.58565812    -0.77250
O458        O  0.71255444  0.23077299  0.66828837    -0.82440
C459        C  0.72779556  0.21827327  0.59466972     0.98590
C460        C  0.71285300  0.20683695  0.69200043     1.04510
O461        O  0.72797162  0.19293600  0.61695960    -0.78090
C462        C  0.59191705  0.19547981  0.58222971     1.02810
Fe463      Fe  0.59246996  0.44996812  0.87103410     1.65780
Fe464      Fe  0.66698996  0.43040344  0.85818978     1.73250
Fe465      Fe  0.69077398  0.52966444  0.86613729     1.54410
O466        O  0.64747980  0.54716933  0.84536004    -0.81820
O467        O  0.69770301  0.44905386  0.90278897    -0.80130
O468        O  0.59978275  0.48546607  0.83040755    -0.84330
O469        O  0.60280252  0.49462553  0.90807057    -0.79180
O470        O  0.71706141  0.52740867  0.81861842    -0.80960
O471        O  0.61626500  0.38291131  0.88416696    -0.83700
C472        C  0.63482625  0.52021235  0.92483232     0.97060
C473        C  0.61044976  0.52210880  0.83524172     1.04500
O474        O  0.65048674  0.47033237  0.86636366    -1.12690
O475        O  0.63636900  0.41546673  0.81288205    -0.75120
O476        O  0.57862879  0.40455079  0.83564252    -0.78600
O477        O  0.67085725  0.53434859  0.91328860    -0.79290
C478        C  0.60203911  0.41320230  0.80999442     0.95970
O479        O  0.58368356  0.41019366  0.91034004    -0.77250
O480        O  0.71996760  0.47070556  0.83008519    -0.82440
C481        C  0.72743614  0.48535180  0.90881063     0.98590
C482        C  0.72937623  0.50217790  0.81120266     1.04510
O483        O  0.73299760  0.51758355  0.89213569    -0.78090
C484        C  0.58888983  0.38014135  0.90475212     1.02810
Fe485      Fe  0.58616980  0.13400819  0.86572988     1.65780
Fe486      Fe  0.59632070  0.22671528  0.87351807     1.73250
Fe487      Fe  0.50314223  0.14305530  0.86004319     1.54410
O488        O  0.49343570  0.08527471  0.83958475    -0.81820
O489        O  0.55822206  0.21774203  0.91342113    -0.80130
O490        O  0.55496559  0.11085819  0.82178307    -0.84330
O491        O  0.53992501  0.09368400  0.90109644    -0.79180
O492        O  0.51412175  0.17501199  0.81334747    -0.80960
O493        O  0.63684652  0.22264445  0.90779266    -0.83700
C494        C  0.51308971  0.09742086  0.91850341     0.97060
C495        C  0.52078348  0.07973652  0.82608185     1.04500
O496        O  0.56279306  0.16832885  0.86656956    -1.12690
O497        O  0.63574078  0.23551098  0.83500039    -0.75120
O498        O  0.63305702  0.17532281  0.83356309    -0.78600
O499        O  0.49562405  0.11629267  0.90684740    -0.79290
C500        C  0.63369633  0.20584772  0.81835171     0.95970
O501        O  0.62149224  0.15694419  0.90782669    -0.77250
O502        O  0.56058243  0.23666379  0.83574710    -0.82440
C503        C  0.52578655  0.21754757  0.90620614     0.98590
C504        C  0.53515556  0.21492323  0.81166212     1.04510
O505        O  0.50187556  0.19321966  0.88313378    -0.78090
C506        C  0.64365206  0.19398456  0.91699757     1.02810
Fe507      Fe  0.87955704  0.42926232  0.86819296     1.65780
Fe508      Fe  0.78949080  0.34359797  0.87648769     1.73250
Fe509      Fe  0.87323115  0.33736666  0.86601085     1.54410
O510        O  0.92918519  0.38653735  0.84323330    -0.81820
O511        O  0.80130507  0.32096012  0.91921562    -0.80130
O512        O  0.90192542  0.42073719  0.82451102    -0.84330
O513        O  0.92267725  0.42728910  0.90217844    -0.79180
O514        O  0.84183884  0.31451336  0.81943614    -0.80960
O515        O  0.79135744  0.39014450  0.90679077    -0.83700
C516        C  0.91912526  0.39776218  0.92176026     0.97060
C517        C  0.93356285  0.41948407  0.82949433     1.04500
O518        O  0.84726807  0.37067673  0.87023146    -1.12690
O519        O  0.78083799  0.36898239  0.83420266    -0.75120
O520        O  0.83660736  0.43201759  0.83650565    -0.78600
O521        O  0.90034823  0.36006649  0.91223264    -0.79290
C522        C  0.80777581  0.40204448  0.81977042     0.95970
O523        O  0.85668412  0.44020343  0.91102047    -0.77250
O524        O  0.78047189  0.29442670  0.84289082    -0.82440
C525        C  0.80175263  0.28805354  0.91584180     0.98590
C526        C  0.80236632  0.29404425  0.81772976     1.04510
O527        O  0.82410261  0.28578202  0.89243076    -0.78090
C528        C  0.81934964  0.42499363  0.91832128     1.02810
C529        C  0.70600063  0.18937205  0.91782424    -0.21450
C530        C  0.68292902  0.20491108  0.93313174    -0.09500
C531        C  0.70253881  0.23856348  0.95519320     0.29360
C532        C  0.74526075  0.26017387  0.95732473    -0.21450
C533        C  0.76834131  0.25169466  0.93386709    -0.09510
C534        C  0.74888812  0.21316115  0.91761001     0.29370
F535        F  0.77012710  0.20250158  0.89624728    -0.20030
H536        H  0.69125750  0.16271056  0.90114450     0.17730
H537        H  0.75986537  0.28904798  0.97121917     0.17740
F538        F  0.68114865  0.25413095  0.97032770    -0.20020
C539        C  0.77059508  0.43365788  0.95409327    -0.21450
C540        C  0.80740829  0.45178941  0.93566188    -0.09500
C541        C  0.82450023  0.49295533  0.92361058     0.29360
C542        C  0.79982718  0.51058505  0.92176620    -0.21450
C543        C  0.75879871  0.48713475  0.93225053    -0.09510
C544        C  0.74693267  0.45234333  0.95369740     0.29370
F545        F  0.70828259  0.43089655  0.96678017    -0.20030
H546        H  0.75749993  0.40255952  0.96444571     0.17730
H547        H  0.81026145  0.53837516  0.90638696     0.17740
F548        F  0.86122222  0.51245671  0.90704954    -0.20020
C549        C  0.52484559  0.31421647  0.89657714    -0.21450
C550        C  0.55882948  0.33891473  0.91753616    -0.09500
C551        C  0.56975618  0.32036129  0.94330367     0.29360
C552        C  0.55057537  0.27726841  0.94482862    -0.21450
C553        C  0.52289621  0.25291526  0.91881696    -0.09510
C554        C  0.50674880  0.27114336  0.89709933     0.29370
F555        F  0.47908121  0.24869241  0.87235782    -0.20030
H556        H  0.51612928  0.32841081  0.87654878     0.17730
H557        H  0.56271799  0.26376806  0.96250325     0.17740
F558        F  0.60281745  0.34382123  0.96344951    -0.20020
C559        C  0.62168893  0.23701523  0.76661343    -0.21450
C560        C  0.62298489  0.20360429  0.78196849    -0.09500
C561        C  0.60560781  0.16580794  0.76465569     0.29360
C562        C  0.58465067  0.16073545  0.73415806    -0.21450
C563        C  0.58787584  0.19516778  0.71697062    -0.09510
C564        C  0.60481848  0.23302209  0.73413804     0.29370
F565        F  0.60912313  0.26709332  0.71782500    -0.20030
H566        H  0.63448144  0.26656956  0.77940554     0.17730
H567        H  0.57126486  0.13113504  0.72173472     0.17740
F568        F  0.61036957  0.13432925  0.77619937    -0.20020
C569        C  0.72069530  0.21150989  0.75719039    -0.21450
C570        C  0.73748229  0.22647738  0.72434627    -0.09500
C571        C  0.77713869  0.26226664  0.72286859     0.29360
C572        C  0.79867577  0.28255884  0.75309091    -0.21450
C573        C  0.78093331  0.26902676  0.78588182    -0.09510
C574        C  0.74161301  0.23268898  0.78739193     0.29370
F575        F  0.72338145  0.21732150  0.81820475    -0.20030
H576        H  0.69056724  0.18402436  0.75947498     0.17730
H577        H  0.82874675  0.31019475  0.75068198     0.17740
F578        F  0.79514888  0.27797065  0.69202370    -0.20020
C579        C  0.75404644  0.47613917  0.72336002    -0.21450
C580        C  0.79709310  0.50165220  0.72034734    -0.09500
C581        C  0.81780097  0.52984491  0.74736549     0.29360
C582        C  0.79583071  0.53211185  0.77599728    -0.21450
C583        C  0.75276976  0.50614629  0.77870236    -0.09510
C584        C  0.73254702  0.47774230  0.75203425     0.29370
F585        F  0.69178602  0.44980976  0.75430343    -0.20030
H586        H  0.73663065  0.45354142  0.70379165     0.17730
H587        H  0.81269632  0.55315306  0.79665068     0.17740
F588        F  0.85927567  0.55468997  0.74657129    -0.20020
C589        C  0.85422848  0.41277794  0.73399430    -0.21450
C590        C  0.82167014  0.38078649  0.71583069    -0.09500
C591        C  0.78307371  0.35767536  0.73157953     0.29360
C592        C  0.77743509  0.36692139  0.76484005    -0.21450
C593        C  0.80975499  0.40052054  0.78236180    -0.09510
C594        C  0.84763928  0.42443443  0.76583554     0.29370
F595        F  0.87830376  0.45939317  0.78015733    -0.20030
H596        H  0.88362379  0.43235325  0.72188272     0.17730
H597        H  0.74780975  0.34762580  0.77695810     0.17740
F598        F  0.75033251  0.32821124  0.71383443    -0.20020
C599        C  0.80110087  0.27254252  0.59666642    -0.21450
C600        C  0.76494417  0.25157749  0.57748471    -0.09500
C601        C  0.75879512  0.27332020  0.55044602     0.29360
C602        C  0.78087002  0.31664378  0.54998637    -0.21450
C603        C  0.81222975  0.33803625  0.57376689    -0.09510
C604        C  0.82511248  0.31577285  0.59447043     0.29370
F605        F  0.85689352  0.33594524  0.61664129    -0.20030
H606        H  0.80722868  0.25666994  0.61704664     0.17730
H607        H  0.77123033  0.33323841  0.53322705     0.17740
F608        F  0.72581729  0.25327799  0.52935421    -0.20020
C609        C  0.55790614  0.28072798  0.77690349    -0.21450
C610        C  0.53042554  0.23775245  0.78116592    -0.09500
C611        C  0.50004839  0.21770947  0.75550142     0.29360
C612        C  0.49815934  0.23989098  0.72655331    -0.21450
C613        C  0.52657096  0.28255166  0.72207083    -0.09510
C614        C  0.55658037  0.30245915  0.74774195     0.29370
F615        F  0.58628611  0.34281393  0.74380082    -0.20030
H616        H  0.58195329  0.29753945  0.79555703     0.17730
H617        H  0.47551138  0.22324920  0.70684961     0.17740
F618        F  0.47256980  0.17645215  0.75786192    -0.20020
C619        C  0.56079892  0.40420379  0.75843357    -0.21450
C620        C  0.59456253  0.42925362  0.77854129    -0.09500
C621        C  0.62597168  0.46728506  0.76507791     0.29360
C622        C  0.63014795  0.47393321  0.73005212    -0.21450
C623        C  0.60168730  0.44292108  0.70922191    -0.09510
C624        C  0.56395547  0.41213505  0.72347819     0.29370
F625        F  0.53276425  0.38581434  0.70345518    -0.20030
H626        H  0.53477264  0.37617209  0.76870871     0.17730
H627        H  0.65842872  0.49936331  0.71962547     0.17740
F628        F  0.65514438  0.49579604  0.78528865    -0.20020
C629        C  0.51403929  0.22313515  0.57898059    -0.21450
C630        C  0.54007616  0.26420143  0.56835490    -0.09500
C631        C  0.57310019  0.27335031  0.54625688     0.29360
C632        C  0.58753006  0.24596251  0.54474558    -0.21450
C633        C  0.56729131  0.20888573  0.56344602    -0.09510
C634        C  0.52755645  0.19501117  0.57623482     0.29370
F635        F  0.50639793  0.15819452  0.59318707    -0.20030
H636        H  0.48753057  0.21492259  0.59491408     0.17730
H637        H  0.61754927  0.25646490  0.53376364     0.17740
F638        F  0.59671670  0.31206081  0.53289455    -0.20020
C639        C  0.71448903  0.50034773  0.60211453    -0.21450
C640        C  0.69273397  0.46877806  0.57812353    -0.09500
C641        C  0.71380893  0.46430555  0.55078555     0.29360
C642        C  0.75676079  0.48671932  0.55071548    -0.21450
C643        C  0.77830816  0.51073229  0.57947823    -0.09510
C644        C  0.75735574  0.52176527  0.60267182     0.29370
F645        F  0.77715008  0.54611049  0.63000491    -0.20030
H646        H  0.69842666  0.50468956  0.62307529     0.17730
H647        H  0.77255116  0.47870857  0.53195712     0.17740
F648        F  0.69331866  0.43420163  0.52725449    -0.20020
C649        C  0.97344394  0.49594341  0.81597977    -0.21450
C650        C  0.97341549  0.46005474  0.82784042    -0.09500
C651        C  0.00950550  0.46557176  0.84290663     0.29360
C652        C  0.04410616  0.50549638  0.84585501    -0.21450
C653        C  0.04362692  0.54123725  0.83472586    -0.09510
C654        C  0.00788645  0.53594326  0.81948493     0.29370
F655        F  0.00664816  0.56910131  0.80694481    -0.20030
H656        H  0.94631093  0.49336462  0.80451182     0.17730
H657        H  0.07173831  0.50837807  0.85674130     0.17740
F658        F  0.01127840  0.43270468  0.85544554    -0.20020
C659        C  0.53239141  0.55354126  0.80926908    -0.21450
C660        C  0.49645723  0.52193284  0.82586987    -0.09500
C661        C  0.50046530  0.49399549  0.84712816     0.29360
C662        C  0.53884373  0.49785471  0.85198311    -0.21450
C663        C  0.57485124  0.52897117  0.83535896    -0.09510
C664        C  0.57104967  0.55667851  0.81348718     0.29370
F665        F  0.60404169  0.58575213  0.79556700    -0.20030
H666        H  0.53056206  0.57620928  0.79322837     0.17730
H667        H  0.54009248  0.47500419  0.86823655     0.17740
F668        F  0.46766405  0.46399172  0.86470857    -0.20020
C669        C  0.23537888  0.47892007  0.88877403    -0.21450
C670        C  0.26779534  0.49532823  0.91233325    -0.09500
C671        C  0.26709294  0.51967913  0.93946674     0.29360
C672        C  0.24311380  0.53794992  0.93646561    -0.21450
C673        C  0.21676644  0.52822998  0.90848730    -0.09510
C674        C  0.20974123  0.49542259  0.88680689     0.29370
F675        F  0.18315683  0.48450894  0.86010120    -0.20030
H676        H  0.23436956  0.45918951  0.86822837     0.17730
H677        H  0.24786941  0.56223701  0.95400084     0.17740
F678        F  0.29601355  0.53314412  0.96446634    -0.20020
C679        C  0.54685212  0.99646435  0.80471478    -0.21450
C680        C  0.54094020  0.97690496  0.83689149    -0.09500
C681        C  0.52481988  0.98993676  0.86345059     0.29360
C682        C  0.51201124  0.01831059  0.85752404    -0.21450
C683        C  0.51957238  0.03934045  0.82626664    -0.09510
C684        C  0.53823347  0.02877129  0.79993906     0.29370
F685        F  0.54712352  0.04902252  0.76935510    -0.20030
H686        H  0.55680021  0.98585891  0.78313568     0.17730
H687        H  0.49747245  0.02493570  0.87826490     0.17740
F688        F  0.51739972  0.97192798  0.89487363    -0.20020
C689        C  0.28993780  0.77508958  0.90678267    -0.21450
C690        C  0.27018228  0.73705329  0.92433398    -0.09500
C691        C  0.29330760  0.72791660  0.94752732     0.29360
C692        C  0.33615508  0.75091577  0.94640034    -0.21450
C693        C  0.35595482  0.78470382  0.92402943    -0.09510
C694        C  0.33285415  0.79899820  0.90668832     0.29370
F695        F  0.35165529  0.83250085  0.88550858    -0.20030
H696        H  0.27296206  0.78317334  0.88912278     0.17730
H697        H  0.35355962  0.73970781  0.96004494     0.17740
F698        F  0.27484061  0.69226970  0.96625349    -0.20020
C699        C  0.45505581  0.68800399  0.95687142    -0.21450
C700        C  0.46918287  0.66542009  0.93947384    -0.09500
C701        C  0.50932417  0.68640441  0.92564168     0.29360
C702        C  0.52961003  0.72932678  0.92092656    -0.21450
C703        C  0.50976158  0.75037914  0.93062844    -0.09510
C704        C  0.47692015  0.73107659  0.95420462     0.29370
F705        F  0.45847002  0.75181854  0.96515732    -0.20030
H706        H  0.42462281  0.67243687  0.96813916     0.17730
H707        H  0.55586378  0.74395452  0.90384635     0.17740
F708        F  0.52471393  0.66512524  0.90987134    -0.20020
C709        C  0.99476372  0.47305424  0.67535698    -0.21450
C710        C  0.99175299  0.50926640  0.67430270    -0.09500
C711        C  0.02833134  0.54772669  0.67468459     0.29360
C712        C  0.06642536  0.54969511  0.67413626    -0.21450
C713        C  0.06928504  0.51345613  0.67210206    -0.09510
C714        C  0.03274615  0.47500484  0.67378732     0.29370
F715        F  0.03339234  0.43926434  0.67206442    -0.20030
H716        H  0.96734850  0.44256450  0.67528329     0.17730
H717        H  0.09384944  0.58014227  0.67313146     0.17740
F718        F  0.02745300  0.58338986  0.67414482    -0.20020
C719        C  0.19287239  0.61091288  0.71171866    -0.21450
C720        C  0.23157559  0.62235449  0.69849272    -0.09500
C721        C  0.26022584  0.61944109  0.71980767     0.29360
C722        C  0.24918461  0.60310931  0.75268182    -0.21450
C723        C  0.20962388  0.58936878  0.76502668    -0.09510
C724        C  0.18138554  0.59324683  0.74426950     0.29370
F725        F  0.14382232  0.58308767  0.75642045    -0.20030
H726        H  0.17099446  0.61462557  0.69656308     0.17730
H727        H  0.27207143  0.60262384  0.76911472     0.17740
F728        F  0.29877374  0.63165124  0.70874630    -0.20020
C729        C  0.32354416  0.52507159  0.73921640    -0.21450
C730        C  0.30612569  0.52050335  0.77204756    -0.09500
C731        C  0.26600503  0.51432733  0.77327997     0.29360
C732        C  0.24439743  0.51274453  0.74296323    -0.21450
C733        C  0.26232325  0.51882706  0.71013891    -0.09510
C734        C  0.30252478  0.52497276  0.70892904     0.29370
F735        F  0.32175115  0.53076903  0.67833421    -0.20030
H736        H  0.35422275  0.53003245  0.73700449     0.17730
H737        H  0.21384642  0.50809070  0.74535127     0.17740
F738        F  0.24729344  0.50946508  0.80398832    -0.20020
C739        C  0.51790030  0.48586737  0.62708672    -0.21450
C740        C  0.50070076  0.45616532  0.65386381    -0.09500
C741        C  0.49643248  0.47011951  0.68607030     0.29360
C742        C  0.50879225  0.51216279  0.69090499    -0.21450
C743        C  0.52881603  0.54213497  0.66461120    -0.09510
C744        C  0.53410660  0.52825327  0.63285235     0.29370
F745        F  0.55525181  0.55553182  0.60722958    -0.20030
H746        H  0.52397718  0.47694281  0.60247794     0.17730
H747        H  0.50346437  0.52160146  0.71559019     0.17740
F748        F  0.48290090  0.44376587  0.71335465    -0.20020
C749        C  0.48875606  0.73924197  0.72004038    -0.21450
C750        C  0.51884723  0.72816650  0.71517835    -0.09500
C751        C  0.55055561  0.74235419  0.73997779     0.29360
C752        C  0.55150919  0.76640474  0.76841122    -0.21450
C753        C  0.52058728  0.77633803  0.77321905    -0.09510
C754        C  0.48897919  0.76172852  0.74870550     0.29370
F755        F  0.45672024  0.76737397  0.75335267    -0.20030
H756        H  0.46337038  0.72880582  0.70229065     0.17730
H757        H  0.57544474  0.77570331  0.78746087     0.17740
F758        F  0.58011228  0.73233347  0.73730468    -0.20020
C759        C  0.42871376  0.65876975  0.77288439    -0.21450
C760        C  0.45599088  0.65242987  0.79302769    -0.09500
C761        C  0.47923424  0.63799721  0.77691236     0.29360
C762        C  0.46659729  0.61874575  0.74522658    -0.21450
C763        C  0.43338956  0.61744221  0.72787443    -0.09510
C764        C  0.41656839  0.64037554  0.74074448     0.29370
F765        F  0.38659497  0.64264881  0.72349343    -0.20030
H766        H  0.41173228  0.67173427  0.78426096     0.17730
H767        H  0.48251343  0.60434974  0.73459253     0.17740
F768        F  0.50957321  0.63622501  0.79398429    -0.20020
C769        C  0.28285589  0.47537981  0.59185087    -0.21450
C770        C  0.26939704  0.49548286  0.56968551    -0.09500
C771        C  0.29771601  0.52459656  0.54589528     0.29360
C772        C  0.33966059  0.54321126  0.55232778    -0.21450
C773        C  0.35304034  0.52997911  0.58043448    -0.09510
C774        C  0.32488102  0.49271617  0.59740952     0.29370
F775        F  0.33705789  0.47738401  0.62356653    -0.20030
H776        H  0.26158788  0.45154459  0.60938883     0.17730
H777        H  0.36104430  0.57070113  0.53794160     0.17740
F778        F  0.28519975  0.54223745  0.52204592    -0.20020
C779        C  0.50013100  0.96985757  0.69869009    -0.21450
C780        C  0.46820216  0.96486018  0.67630133    -0.09500
C781        C  0.47785909  0.99623171  0.65196179     0.29360
C782        C  0.51814736  0.03028937  0.64933663    -0.21450
C783        C  0.55050894  0.03391064  0.67017445    -0.09510
C784        C  0.54072087  0.00364561  0.69552442     0.29370
F785        F  0.57019647  0.00677031  0.71723658    -0.20030
H786        H  0.49412547  0.94587529  0.71738161     0.17730
H787        H  0.52412723  0.05415227  0.63059261     0.17740
F788        F  0.44928036  0.99251521  0.62889473    -0.20020
C789        C  0.28872588  0.78599494  0.75043144    -0.21450
C790        C  0.27591113  0.76714482  0.71808649    -0.09500
C791        C  0.24035090  0.72723122  0.71708065     0.29360
C792        C  0.21921538  0.70668748  0.74747872    -0.21450
C793        C  0.23404049  0.72421632  0.77992581    -0.09510
C794        C  0.26890156  0.76452089  0.78093402     0.29370
F795        F  0.28426975  0.78299220  0.81154821    -0.20030
H796        H  0.31555410  0.81662491  0.75236547     0.17730
H797        H  0.19230851  0.67601924  0.74579113     0.17740
F798        F  0.22640688  0.70769684  0.68662872    -0.20020
C799        C  0.47462248  0.85120699  0.73754932    -0.21450
C800        C  0.43787321  0.83658764  0.72014701    -0.09500
C801        C  0.40804758  0.84414893  0.73357610     0.29360
C802        C  0.40917361  0.85482609  0.76742081    -0.21450
C803        C  0.44007336  0.85682134  0.78748620    -0.09510
C804        C  0.47619301  0.86307299  0.77140055     0.29370
F805        F  0.50993043  0.87280548  0.78978547    -0.20030
H806        H  0.49988568  0.84945375  0.72652156     0.17730
H807        H  0.38256731  0.85361276  0.77886810     0.17740
F808        F  0.37710674  0.83953168  0.71420687    -0.20020
C809        C  0.29643802  0.73481209  0.53722266    -0.21450
C810        C  0.28005316  0.75139867  0.56024302    -0.09500
C811        C  0.23815281  0.72752271  0.56816011     0.29360
C812        C  0.21735903  0.68483192  0.56200878    -0.21450
C813        C  0.23917968  0.66641817  0.54954933    -0.09510
C814        C  0.27795163  0.69186164  0.53496944     0.29370
F815        F  0.30066727  0.67550595  0.52427466    -0.20030
H816        H  0.32834825  0.75344588  0.52946948     0.17730
H817        H  0.18703117  0.66578592  0.57304582     0.17740
F818        F  0.22036570  0.74300524  0.58862460    -0.20020
C819        C  0.50454093  0.80071808  0.59911506    -0.21450
C820        C  0.46814292  0.78706019  0.58043915    -0.09500
C821        C  0.45658918  0.75635277  0.55576237     0.29360
C822        C  0.47820092  0.73556895  0.55327091    -0.21450
C823        C  0.50928615  0.74329223  0.57725240    -0.09510
C824        C  0.52521007  0.77887058  0.59767164     0.29370
F825        F  0.55586730  0.78818442  0.62045768    -0.20030
H826        H  0.51390945  0.82485619  0.61807482     0.17730
H827        H  0.46616202  0.70896200  0.53655254     0.17740
F828        F  0.42183580  0.74328474  0.53711550    -0.20020
C829        C  0.92632756  0.37283355  0.97980581    -0.21450
C830        C  0.93356320  0.40621540  0.95804367    -0.09500
C831        C  0.94623164  0.44485033  0.97305912     0.29360
C832        C  0.94641619  0.44833506  0.00876350    -0.21450
C833        C  0.93394541  0.41356724  0.03034541    -0.09510
C834        C  0.92633846  0.37633014  0.01558029     0.29370
F835        F  0.91450449  0.34207478  0.03529279    -0.20030
H836        H  0.91706766  0.34272984  0.96921978     0.17730
H837        H  0.95331001  0.47773561  0.01946455     0.17740
F838        F  0.95467409  0.47837782  0.95349985    -0.20020
C839        C  0.52859458  0.06740521  0.00726010    -0.21450
C840        C  0.51013022  0.08465489  0.02715332    -0.09500
C841        C  0.48399121  0.09571888  0.01098648     0.29360
C842        C  0.48098448  0.09471743  0.97517568    -0.21450
C843        C  0.50441319  0.08324687  0.95489978    -0.09510
C844        C  0.52592774  0.06672847  0.97148707     0.29370
F845        F  0.54762916  0.05364142  0.95333598    -0.20030
H846        H  0.54822689  0.05777006  0.01927539     0.17730
H847        H  0.46341025  0.10692399  0.96335446     0.17740
F848        F  0.46550246  0.11232947  0.02920395    -0.20020
C849        C  0.77384642  0.23722630  0.07675232    -0.21450
C850        C  0.78506360  0.27715535  0.06565791    -0.09500
C851        C  0.75822639  0.28222774  0.04390382     0.29360
C852        C  0.71674297  0.25198038  0.04401203    -0.21450
C853        C  0.70325981  0.21560392  0.06315319    -0.09510
C854        C  0.73254180  0.20599035  0.07545962     0.29370
F855        F  0.72079382  0.16981384  0.09230823    -0.20030
H856        H  0.79468518  0.23227936  0.09236929     0.17730
H857        H  0.69487658  0.25963488  0.03367335     0.17740
F858        F  0.76962527  0.32026663  0.03079347    -0.20020
C859        C  0.66643729  0.55319812  0.98066598    -0.21450
C860        C  0.63078083  0.53122958  0.96041424    -0.09500
C861        C  0.59217297  0.51328549  0.97649770     0.29360
C862        C  0.58970354  0.51174208  0.01221332    -0.21450
C863        C  0.62548075  0.52792361  0.03229053    -0.09510
C864        C  0.66388996  0.55140378  0.01641221     0.29370
F865        F  0.69903790  0.56745205  0.03503339    -0.20030
H866        H  0.69668253  0.56816826  0.96908443     0.17730
H867        H  0.55971628  0.49409168  0.02414742     0.17740
F868        F  0.55684864  0.49345611  0.95809960    -0.20020
C869        C  0.74598777  0.46438513  0.04312716    -0.21450
C870        C  0.75289041  0.49814359  0.06342171    -0.09500
C871        C  0.79290265  0.52588487  0.07446005     0.29360
C872        C  0.82104950  0.51247390  0.07548947    -0.21450
C873        C  0.80857319  0.47168082  0.06555154    -0.09510
C874        C  0.77308308  0.44977023  0.04557059     0.29370
F875        F  0.76136792  0.41147940  0.03352630    -0.20030
H876        H  0.71559872  0.44374907  0.03291830     0.17730
H877        H  0.84947048  0.53111738  0.08936876     0.17740
F878        F  0.80141709  0.56050131  0.09193758    -0.20020
C879        C  0.57281384  0.27643392  0.04497068    -0.21450
C880        C  0.54008157  0.24809010  0.06588290    -0.09500
C881        C  0.51196355  0.25887368  0.07786312     0.29360
C882        C  0.52247445  0.30036375  0.07648633    -0.21450
C883        C  0.56119374  0.33070650  0.06373207    -0.09510
C884        C  0.58422905  0.31807664  0.04474046     0.29370
F885        F  0.62110880  0.34642851  0.03106592    -0.20030
H886        H  0.59414237  0.26816293  0.03458706     0.17730
H887        H  0.50355783  0.30926518  0.09045979     0.17740
F888        F  0.47918340  0.23171029  0.09710438    -0.20020
C889        C  0.58546613  0.08873113  0.52440017    -0.21450
C890        C  0.61852691  0.08939278  0.54095838    -0.09500
C891        C  0.64977297  0.09006628  0.52070983     0.29360
C892        C  0.64906274  0.09317431  0.48467863    -0.21450
C893        C  0.61745609  0.09605159  0.46838195    -0.09510
C894        C  0.58495552  0.09253727  0.48899353     0.29370
F895        F  0.55339109  0.09544331  0.47553295    -0.20030
H896        H  0.56116682  0.08865165  0.53903589     0.17730
H897        H  0.67422391  0.09546983  0.46979401     0.17740
F898        F  0.68180511  0.08944623  0.53574498    -0.20020
C899        C  0.62708922  0.15429014  0.26933698    -0.21450
C900        C  0.59241997  0.15775846  0.27480882    -0.09500
C901        C  0.56918190  0.15752733  0.24729751     0.29360
C902        C  0.58331468  0.15780469  0.21458050    -0.21450
C903        C  0.62150238  0.16165510  0.20920067    -0.09510
C904        C  0.64270018  0.15760954  0.23654035     0.29370
F905        F  0.67726349  0.15597609  0.23151959    -0.20030
H906        H  0.64194711  0.14925770  0.29058871     0.17730
H907        H  0.56452556  0.15432428  0.19302405     0.17740
F908        F  0.53267259  0.15535691  0.25207596    -0.20020
C909        C  0.74618654  0.28588801  0.22520349    -0.21450
C910        C  0.78586788  0.29284572  0.21848328    -0.09500
C911        C  0.79895264  0.27098647  0.23991521     0.29360
C912        C  0.77367811  0.24477629  0.26742609    -0.21450
C913        C  0.73452704  0.23941300  0.27456442    -0.09510
C914        C  0.72137855  0.26028730  0.25220326     0.29370
F915        F  0.68386189  0.25615028  0.25620336    -0.20030
H916        H  0.73381025  0.30083295  0.20949174     0.17730
H917        H  0.78529376  0.22956585  0.28368607     0.17740
F918        F  0.83623526  0.27511462  0.23464919    -0.20020
C919        C  0.88514649  0.50011169  0.48659950    -0.21450
C920        C  0.92057057  0.52036290  0.46647168    -0.09500
C921        C  0.95933666  0.53980930  0.48261292     0.29360
C922        C  0.96204430  0.53816814  0.51867680    -0.21450
C923        C  0.92606267  0.51579252  0.53832383    -0.09510
C924        C  0.88782436  0.49699334  0.52179573     0.29370
F925        F  0.85270812  0.47331675  0.53961194    -0.20030
H926        H  0.85511097  0.48332542  0.47462729     0.17730
H927        H  0.99181976  0.55333158  0.53102263     0.17740
F928        F  0.99419269  0.55826947  0.46351817    -0.20020
C929        C  0.81466379  0.40467748  0.23223838    -0.21450
C930        C  0.84877824  0.43991413  0.21784011    -0.09500
C931        C  0.88498129  0.46136671  0.23702846     0.29360
C932        C  0.88827556  0.44557015  0.26818297    -0.21450
C933        C  0.85468016  0.41017477  0.28256741    -0.09510
C934        C  0.81749021  0.38992510  0.26447858     0.29370
F935        F  0.78409473  0.35597924  0.27786812    -0.20030
H936        H  0.78628907  0.38748871  0.21802912     0.17730
H937        H  0.91715202  0.46204316  0.28138768     0.17740
F938        F  0.91790862  0.49690798  0.22520729    -0.20020
C939        C  0.79669155  0.51728554  0.25477913    -0.21450
C940        C  0.78952615  0.47965337  0.26994202    -0.09500
C941        C  0.75531675  0.44287020  0.25707279     0.29360
C942        C  0.73054151  0.44357529  0.23043736    -0.21450
C943        C  0.73729617  0.48070497  0.21511766    -0.09510
C944        C  0.77096664  0.51792133  0.22803391     0.29370
F945        F  0.77926151  0.55496865  0.21486793    -0.20030
H946        H  0.82178851  0.54642142  0.26405676     0.17730
H947        H  0.70517143  0.41409637  0.22200886     0.17740
F948        F  0.74475052  0.40523340  0.27045184    -0.20020
C949        C  0.73746533  0.27933079  0.44772179    -0.21450
C950        C  0.74603095  0.25261261  0.42933349    -0.09500
C951        C  0.78696376  0.26444690  0.42298586     0.29360
C952        C  0.81706424  0.30611565  0.42586589    -0.21450
C953        C  0.80539723  0.33512719  0.43397592    -0.09510
C954        C  0.76723903  0.32115082  0.44972392     0.29370
F955        F  0.75629792  0.34831642  0.46088061    -0.20030
H956        H  0.70606532  0.26977657  0.45436391     0.17730
H957        H  0.84723721  0.31611463  0.41545827     0.17740
F958        F  0.79637382  0.23848040  0.40682020    -0.20020
C959        C  0.50396491  0.42248863  0.47512038    -0.21450
C960        C  0.49274752  0.38624718  0.45662138    -0.09500
C961        C  0.47742088  0.34854512  0.47434141     0.29360
C962        C  0.47880497  0.34831947  0.51015108    -0.21450
C963        C  0.49584662  0.38570933  0.52855013    -0.09510
C964        C  0.50564445  0.42237647  0.51085057     0.29370
F965        F  0.52026049  0.45874342  0.52770812    -0.20030
H966        H  0.51555804  0.45181919  0.46176429     0.17730
H967        H  0.47053527  0.31944926  0.52312016     0.17740
F968        F  0.46681430  0.31311612  0.45722302    -0.20020
C969        C  0.58509782  0.27615271  0.22428068    -0.21450
C970        C  0.55023161  0.23859097  0.21384432    -0.09500
C971        C  0.51326959  0.22643444  0.23197799     0.29360
C972        C  0.51201905  0.25058387  0.25962982    -0.21450
C973        C  0.54745850  0.28770750  0.27032280    -0.09510
C974        C  0.58390088  0.30006688  0.25148834     0.29370
F975        F  0.61899845  0.33603616  0.25896208    -0.20030
H976        H  0.61412593  0.28759598  0.21117128     0.17730
H977        H  0.48332084  0.23969690  0.27312662     0.17740
F978        F  0.47832599  0.19094105  0.22341661    -0.20020
C979        C  0.57250591  0.39752260  0.26951282    -0.21450
C980        C  0.61032322  0.43294394  0.27667863    -0.09500
C981        C  0.63525461  0.45796182  0.25032446     0.29360
C982        C  0.62290311  0.44520819  0.21698471    -0.21450
C983        C  0.58822701  0.40662040  0.21009115    -0.09510
C984        C  0.56165607  0.38334101  0.23630424     0.29370
F985        F  0.52524582  0.34837385  0.22974077    -0.20030
H986        H  0.55167377  0.38114834  0.28994336     0.17730
H987        H  0.63929335  0.46566043  0.19623010     0.17740
F988        F  0.66982747  0.49482009  0.25672703    -0.20020
C989        C  0.50082698  0.22498720  0.41083616    -0.21450
C990        C  0.52972096  0.26468255  0.42231354    -0.09500
C991        C  0.56197799  0.26970506  0.44350799     0.29360
C992        C  0.57273901  0.23945322  0.44330612    -0.21450
C993        C  0.55057688  0.20457024  0.42252731    -0.09510
C994        C  0.51137177  0.19449244  0.41072165     0.29370
F995        F  0.48735638  0.15920976  0.39290161    -0.20030
H996        H  0.47462518  0.22006920  0.39578547     0.17730
H997        H  0.60191051  0.24659635  0.45435639     0.17740
F998        F  0.58849296  0.30724058  0.45725225    -0.20020
C999        C  0.74999904  0.46898784  0.44053208    -0.21450
C1000       C  0.77504001  0.49962008  0.41634000    -0.09500
C1001       C  0.75995612  0.52262225  0.40022584     0.29360
C1002       C  0.71788565  0.50820842  0.40168507    -0.21450
C1003       C  0.69111568  0.47057757  0.41867242    -0.09510
C1004       C  0.70771278  0.45317801  0.44063060     0.29370
F1005       F  0.68283335  0.41754752  0.45811643    -0.20030
H1006       H  0.76155310  0.45162000  0.45393665     0.17730
H1007       H  0.70582498  0.52280061  0.38514200     0.17740
F1008       F  0.78369057  0.55321305  0.37752674    -0.20020
C1009       C  0.11896017  0.46607585  0.47639529    -0.21450
C1010       C  0.10606603  0.49098995  0.46016484    -0.09500
C1011       C  0.08966921  0.50984095  0.48075511     0.29360
C1012       C  0.09097499  0.50800164  0.51663447    -0.21450
C1013       C  0.10845175  0.48720611  0.53303005    -0.09510
C1014       C  0.12015398  0.46406120  0.51238368     0.29370
F1015       F  0.13650717  0.44261234  0.52663878    -0.20030
H1016       H  0.13182688  0.45130527  0.46136379     0.17730
H1017       H  0.08104601  0.52554479  0.53148416     0.17740
F1018       F  0.07536084  0.53299051  0.46620901    -0.20020
C1019       C  0.01967765  0.45942717  0.32345901    -0.21450
C1020       C  0.05393702  0.49224461  0.30783065    -0.09500
C1021       C  0.04918400  0.52358309  0.29173738     0.29360
C1022       C  0.01378872  0.52616321  0.29763727    -0.21450
C1023       C  0.98338854  0.49798348  0.32018710    -0.09510
C1024       C  0.98627050  0.46354038  0.33188468     0.29370
F1025       F  0.96054075  0.43703092  0.35621249    -0.20030
H1026       H  0.02255670  0.43533373  0.33635505     0.17730
H1027       H  0.01284452  0.55290754  0.28833170     0.17740
F1028       F  0.08176109  0.55581216  0.27575233    -0.20020
C1029       C  0.48065831  0.55366264  0.48946202    -0.21450
C1030       C  0.51184503  0.58415153  0.46812430    -0.09500
C1031       C  0.54792249  0.61508404  0.48387051     0.29360
C1032       C  0.55086158  0.61721090  0.51989911    -0.21450
C1033       C  0.51802316  0.58861254  0.54100331    -0.09510
C1034       C  0.48341201  0.55596166  0.52518362     0.29370
F1035       F  0.45031391  0.52845996  0.54396856    -0.20030
H1036       H  0.45244873  0.52889223  0.47861931     0.17730
H1037       H  0.57805826  0.64276134  0.53131476     0.17740
F1038       F  0.57927125  0.64462835  0.46475648    -0.20020
C1039       C  0.53589110  0.48230352  0.29245779    -0.21450
C1040       C  0.50005717  0.44520936  0.30277541    -0.09500
C1041       C  0.46509443  0.44718199  0.31012643     0.29360
C1042       C  0.46895902  0.48554292  0.31621090    -0.21450
C1043       C  0.50714652  0.52297462  0.31310941    -0.09510
C1044       C  0.53983486  0.52122940  0.29822626     0.29370
F1045       F  0.57702331  0.55625183  0.29430144    -0.20030
H1046       H  0.56304695  0.48157227  0.28530860     0.17730
H1047       H  0.44317107  0.48485992  0.32843794     0.17740
F1048       F  0.42987230  0.41234391  0.31988914    -0.20020
C1049       C  0.28492141  0.53662468  0.44791011    -0.21450
C1050       C  0.25728824  0.50466452  0.42626885    -0.09500
C1051       C  0.26760183  0.47610677  0.41446374     0.29360
C1052       C  0.30893206  0.48788330  0.41383845    -0.21450
C1053       C  0.33869981  0.52775353  0.42513156    -0.09510
C1054       C  0.32643185  0.54938373  0.44637054     0.29370
F1055       F  0.35441962  0.58619561  0.46040072    -0.20030
H1056       H  0.27649307  0.55772973  0.45875522     0.17730
H1057       H  0.31765224  0.46922954  0.39914661     0.17740
F1058       F  0.24033999  0.44289440  0.39582187    -0.20020
C1059       C  0.45761295  0.92860287  0.52729361    -0.21450
C1060       C  0.41962571  0.91742098  0.54210904    -0.09500
C1061       C  0.38671680  0.91052944  0.52054538     0.29360
C1062       C  0.38994686  0.90794163  0.48516241    -0.21450
C1063       C  0.42597185  0.91258720  0.47099257    -0.09510
C1064       C  0.46083550  0.92609716  0.49197751     0.29370
F1065       F  0.49721265  0.93375696  0.47876994    -0.20030
H1066       H  0.48377314  0.93513835  0.54312861     0.17730
H1067       H  0.36311057  0.89870553  0.46933531     0.17740
F1068       F  0.35005430  0.90204831  0.53370465    -0.20020
C1069       C  0.53817410  0.03388645  0.29823566    -0.21450
C1070       C  0.57278358  0.03426302  0.31274602    -0.09500
C1071       C  0.56709672  0.99681476  0.32507686     0.29360
C1072       C  0.52755039  0.96464791  0.33254690    -0.21450
C1073       C  0.49190907  0.96600577  0.32347175    -0.09510
C1074       C  0.49778568  0.00004961  0.30375844     0.29370
F1075       F  0.46513755  0.00348025  0.29440440    -0.20030
H1076       H  0.54179551  0.06192242  0.28691181     0.17730
H1077       H  0.52592255  0.94147020  0.35006479     0.17740
F1078       F  0.59932183  0.99537040  0.33890320    -0.20020
C1079       C  0.52698148  0.79797303  0.40602807    -0.21450
C1080       C  0.49013366  0.78964866  0.42172908    -0.09500
C1081       C  0.47033785  0.75594088  0.44451967     0.29360
C1082       C  0.48210309  0.72634859  0.44544756    -0.21450
C1083       C  0.51183982  0.72944283  0.42220348    -0.09510
C1084       C  0.53801998  0.76775722  0.40630786     0.29370
F1085       F  0.56826272  0.77233330  0.38487808    -0.20030
H1086       H  0.54360407  0.82460029  0.38921216     0.17730
H1087       H  0.46256789  0.69741024  0.45892200     0.17740
F1088       F  0.43615883  0.74848606  0.46182548    -0.20020
C1089       C  0.30830915  0.73036818  0.45319301    -0.21450
C1090       C  0.29859264  0.75735008  0.43594990    -0.09500
C1091       C  0.25724834  0.74443181  0.43079054     0.29360
C1092       C  0.22841434  0.70209239  0.43228639    -0.21450
C1093       C  0.24194387  0.67366642  0.43720622    -0.09510
C1094       C  0.28078573  0.68789058  0.45159430     0.29370
F1095       F  0.29466360  0.66154513  0.45796654    -0.20030
H1096       H  0.34000613  0.74074227  0.45954329     0.17730
H1097       H  0.19769737  0.69180325  0.42303936     0.17740
F1098       F  0.24631164  0.77058104  0.41675688    -0.20020
C1099       C  0.11252822  0.55469137  0.01314380    -0.21450
C1100       C  0.11534828  0.58683429  0.03379339    -0.09500
C1101       C  0.10932647  0.61710944  0.01799101     0.29360
C1102       C  0.10479677  0.61729178  0.98221228    -0.21450
C1103       C  0.10618715  0.58743044  0.96136338    -0.09510
C1104       C  0.10829483  0.55502748  0.97750905     0.29370
F1105       F  0.11075349  0.52605781  0.95878783    -0.20030
H1106       H  0.11639201  0.53037347  0.02424405     0.17730
H1107       H  0.10301111  0.64260699  0.97056533     0.17740
F1108       F  0.11069834  0.64817541  0.03656971    -0.20020
C1109       C  0.01644321  0.47260598  0.19688921    -0.21450
C1110       C  0.98454566  0.47689710  0.18360279    -0.09500
C1111       C  0.99142568  0.51757288  0.17935255     0.29360
C1112       C  0.03068702  0.55239139  0.18299643    -0.21450
C1113       C  0.06408745  0.54728186  0.18900664    -0.09510
C1114       C  0.05608022  0.50757519  0.19938264     0.29370
F1115       F  0.08772024  0.50126873  0.20488538    -0.20030
H1116       H  0.01242425  0.44205540  0.20000960     0.17730
H1117       H  0.03582798  0.58225132  0.17455864     0.17740
F1118       F  0.96214930  0.52376674  0.16547777    -0.20020
C1119       C  0.17686692  0.57060647  0.27316349    -0.21450
C1120       C  0.20800055  0.60934435  0.28425679    -0.09500
C1121       C  0.24471621  0.63040286  0.26574609     0.29360
C1122       C  0.24764327  0.61481327  0.23422838    -0.21450
C1123       C  0.21504561  0.57664370  0.22257760    -0.09510
C1124       C  0.18148482  0.55300818  0.24400339     0.29370
F1125       F  0.15217494  0.51381783  0.23570688    -0.20030
H1126       H  0.14905247  0.55326295  0.28770882     0.17730
H1127       H  0.27484713  0.63293021  0.21869357     0.17740
F1128       F  0.27704177  0.66583960  0.27794859    -0.20020
C1129       C  0.30666565  0.73046012  0.22576289    -0.21450
C1130       C  0.26660068  0.72184259  0.21811943    -0.09500
C1131       C  0.25094698  0.74092855  0.23972043     0.29360
C1132       C  0.27425880  0.76621026  0.26815403    -0.21450
C1133       C  0.31366696  0.77283396  0.27641187    -0.09510
C1134       C  0.32909244  0.75425027  0.25420456     0.29370
F1135       F  0.36616255  0.75804904  0.26030022    -0.20030
H1136       H  0.32077651  0.71739747  0.21017441     0.17730
H1137       H  0.26068792  0.77917206  0.28449669     0.17740
F1138       F  0.21277809  0.73446320  0.23403055    -0.20020
C1139       C  0.38447771  0.47151089  0.01247998    -0.21450
C1140       C  0.42273631  0.49209322  0.02897081    -0.09500
C1141       C  0.45852320  0.50759425  0.00872137     0.29360
C1142       C  0.45618244  0.50650900  0.97281494    -0.21450
C1143       C  0.41813288  0.48981762  0.95606442    -0.09510
C1144       C  0.38202848  0.47028513  0.97644892     0.29370
F1145       F  0.34430834  0.45351182  0.96183969    -0.20030
H1146       H  0.35650949  0.45979664  0.02731750     0.17730
H1147       H  0.48446076  0.52128681  0.95815798     0.17740
F1148       F  0.49616315  0.52680775  0.02368735    -0.20020
C1149       C  0.52869458  0.54738347  0.17939284    -0.21450
C1150       C  0.49078840  0.50970475  0.18284450    -0.09500
C1151       C  0.49208344  0.47464298  0.19363353     0.29360
C1152       C  0.53016205  0.47634348  0.19548272    -0.21450
C1153       C  0.56723684  0.51274226  0.18609811    -0.09510
C1154       C  0.56637249  0.54920040  0.18180932     0.29370
F1155       F  0.60098516  0.58471565  0.17216125    -0.20030
H1156       H  0.52970942  0.57464505  0.16931153     0.17730
H1157       H  0.52987818  0.44760002  0.19905556     0.17740
F1158       F  0.45677640  0.43744797  0.19667471    -0.20020
C1159       C  0.29111314  0.56702378  0.25744475    -0.21450
C1160       C  0.26016386  0.53019754  0.27311999    -0.09500
C1161       C  0.25633093  0.49299559  0.26031605     0.29360
C1162       C  0.28251645  0.49353568  0.23332569    -0.21450
C1163       C  0.31252920  0.53096794  0.21700914    -0.09510
C1164       C  0.31466733  0.56747452  0.22927304     0.29370
F1165       F  0.34052976  0.60483837  0.21460249    -0.20030
H1166       H  0.29742058  0.59664454  0.26696150     0.17730
H1167       H  0.27879236  0.46442416  0.22489519     0.17740
F1168       F  0.22831857  0.45610937  0.27453636    -0.20020
C1169       C  0.43097792  0.61982711  0.22871886    -0.21450
C1170       C  0.46335687  0.61697499  0.21427171    -0.09500
C1171       C  0.48219369  0.60000307  0.23391891     0.29360
C1172       C  0.46367660  0.57856585  0.26378627    -0.21450
C1173       C  0.42898039  0.57790171  0.27698241    -0.09510
C1174       C  0.41417966  0.60083324  0.26019750     0.29370
F1175       F  0.38356581  0.60465344  0.27410111    -0.20030
H1176       H  0.41703435  0.63445129  0.21469911     0.17730
H1177       H  0.47697849  0.56276632  0.27660843     0.17740
F1178       F  0.51685795  0.60152530  0.22307367    -0.20020
C1179       C  0.22857099  0.49785420  0.07828077    -0.21450
C1180       C  0.24173662  0.53901585  0.06829557    -0.09500
C1181       C  0.27525909  0.55947204  0.04590123     0.29360
C1182       C  0.30085626  0.54330372  0.04150594    -0.21450
C1183       C  0.29505468  0.51030193  0.06288327    -0.09510
C1184       C  0.25546483  0.48309382  0.07525737     0.29370
F1185       F  0.24705546  0.44813087  0.09263738    -0.20030
H1186       H  0.20107343  0.47991101  0.09356494     0.17730
H1187       H  0.33030870  0.56279855  0.02916188     0.17740
F1188       F  0.28675555  0.59754897  0.03291550    -0.20020
C1189       C  0.54248198  0.94234961  0.97825886    -0.21450
C1190       C  0.55417686  0.91669280  0.96217852    -0.09500
C1191       C  0.57325048  0.89945650  0.98180773     0.29360
C1192       C  0.57379394  0.90204421  0.01749721    -0.21450
C1193       C  0.55536637  0.92162122  0.03356603    -0.09510
C1194       C  0.54303870  0.94482300  0.01384025     0.29370
F1195       F  0.52627983  0.96513482  0.02906662    -0.20030
H1196       H  0.52887869  0.95695440  0.96364723     0.17730
H1197       H  0.58340503  0.88401574  0.03243733     0.17740
F1198       F  0.58601766  0.87526499  0.96720788    -0.20020
C1199       C  0.48894042  0.96131745  0.18402925    -0.21450
C1200       C  0.52723094  0.96303154  0.18433642    -0.09500
C1201       C  0.56207746  0.00184183  0.19084754     0.29360
C1202       C  0.55916734  0.03787380  0.19064119    -0.21450
C1203       C  0.52199597  0.03627763  0.18216256    -0.09510
C1204       C  0.48631825  0.99723048  0.18171685     0.29370
F1205       F  0.44983370  0.99358163  0.17314763    -0.20030
H1206       H  0.46084889  0.93255762  0.18042505     0.17730
H1207       H  0.58726666  0.06734823  0.19257059     0.17740
F1208       F  0.59968531  0.00579471  0.19236054    -0.20020
C1209       C  0.46886396  0.73750095  0.23628610    -0.21450
C1210       C  0.50498104  0.76037558  0.21677967    -0.09500
C1211       C  0.53907467  0.75681009  0.22697686     0.29360
C1212       C  0.53608564  0.73026853  0.25494845    -0.21450
C1213       C  0.49927432  0.70690026  0.27412336    -0.09510
C1214       C  0.46602759  0.71212611  0.26417418     0.29370
F1215       F  0.42970659  0.69247112  0.28126728    -0.20030
H1216       H  0.44196586  0.73936470  0.23004119     0.17730
H1217       H  0.56266546  0.72803850  0.26153364     0.17740
F1218       F  0.57495325  0.77798179  0.20943363    -0.20020
C1219       C  0.47333683  0.83656236  0.25508893    -0.21450
C1220       C  0.45111744  0.84393965  0.27883723    -0.09500
C1221       C  0.42077615  0.85254876  0.26770025     0.29360
C1222       C  0.40779405  0.84660422  0.23385545    -0.21450
C1223       C  0.42800618  0.83565342  0.21076188    -0.09510
C1224       C  0.46341679  0.83598110  0.22104030     0.29370
F1225       F  0.49214543  0.84448086  0.19784920    -0.20030
H1226       H  0.49996607  0.83475245  0.26254418     0.17730
H1227       H  0.38346882  0.85185827  0.22565937     0.17740
F1228       F  0.40438357  0.86769338  0.28895803    -0.20020
C1229       C  0.29663455  0.72692007  0.04239469    -0.21450
C1230       C  0.27132157  0.73429734  0.06395767    -0.09500
C1231       C  0.28638776  0.77461412  0.07583876     0.29360
C1232       C  0.32876881  0.80232037  0.07559881    -0.21450
C1233       C  0.35544948  0.78945123  0.06338005    -0.09510
C1234       C  0.33914387  0.75355919  0.04349936     0.29370
F1235       F  0.36400335  0.74131492  0.02963604    -0.20030
H1236       H  0.28501706  0.69628296  0.03191183     0.17730
H1237       H  0.34060398  0.83077467  0.08993379     0.17740
F1238       F  0.26212752  0.78363832  0.09495280    -0.20020
C1239       C  0.54857985  0.75139554  0.07139027    -0.21450
C1240       C  0.52169529  0.76474156  0.06173146    -0.09500
C1241       C  0.48749909  0.73850019  0.04128399     0.29360
C1242       C  0.47208090  0.69599184  0.04268438    -0.21450
C1243       C  0.49302183  0.68100010  0.06189085    -0.09510
C1244       C  0.53417708  0.70897294  0.07154863     0.29370
F1245       F  0.55739207  0.69556862  0.08719447    -0.20030
H1246       H  0.57636355  0.77179661  0.08545603     0.17730
H1247       H  0.44115216  0.67511009  0.03364818     0.17740
F1248       F  0.46201944  0.75170306  0.03039753    -0.20020
loop_ 
_geom_bond_atom_site_label_1 
_geom_bond_atom_site_label_2 
_geom_bond_distance 
_geom_bond_site_symmetry_2 
_ccdc_geom_bond_type 
Fe1          O17   2.023       .  S
Fe1           O7   2.024       .  S
Fe1          O14   2.025       .  S
Fe1           O6   2.009       .  S
Fe1          O12   1.963       .  S
Fe2           O5   2.097       .  S
Fe2           O9   2.074       .  S
Fe2          O13   2.081       .  S
Fe2          O18   2.012       .  S
Fe2          O12   1.929       .  S
Fe3          O21   2.185       .  S
Fe3           O8   2.089       .  S
Fe3          O15   2.184       .  S
Fe3           O4   2.127       .  S
Fe3          O12   1.962       .  S
O4           C11   1.288       .  A
O5           C19   1.278       .  A
O6           C11   1.274       .  A
O7           C10   1.248       .  A
O8           C20   1.278       .  A
O9           C22   1.278       .  A
C10          O15   1.284       .  A
C10        C1200   1.504       .  S
C11        C1193   1.460       .  S
O13          C16   1.265       .  A
O14          C16   1.252       .  A
C16        C1233   1.474       .  S
O17          C22   1.269       .  A
O18          C20   1.271       .  A
C19          O21   1.292       .  A
C19        C1210   1.536       .  S
C20        C1240   1.463       .  S
C22        C1223   1.435       .  S
Fe23         O39   2.041       .  S
Fe23         O29   2.018       .  S
Fe23         O36   2.018       .  S
Fe23         O28   2.018       .  S
Fe23         O34   1.944       .  S
Fe24         O27   2.103       .  S
Fe24         O31   2.078       .  S
Fe24         O35   2.082       .  S
Fe24         O40   2.025       .  S
Fe24         O34   1.912       .  S
Fe25         O43   2.178       .  S
Fe25         O30   2.081       .  S
Fe25         O37   2.164       .  S
Fe25         O26   2.178       .  S
Fe25         O34   1.936       .  S
O26          C33   1.303       .  A
O27          C41   1.278       .  A
O28          C33   1.277       .  A
O29          C32   1.241       .  A
O30          C42   1.275       .  A
O31          C44   1.278       .  A
C32          O37   1.273       .  A
C32        C1150   1.494       .  S
C33        C1140   1.490       .  S
O35          C38   1.265       .  A
O36          C38   1.250       .  A
C38        C1243   1.472       .  S
O39          C44   1.279       .  A
O40          C42   1.271       .  A
C41          O43   1.292       .  A
C41        C1163   1.555       .  S
C42        C1183   1.466       .  S
C44        C1170   1.464       .  S
Fe45         O61   2.026       .  S
Fe45         O51   2.012       .  S
Fe45         O58   2.017       .  S
Fe45         O50   2.019       .  S
Fe45         O56   1.952       .  S
Fe46         O49   2.095       .  S
Fe46         O53   2.068       .  S
Fe46         O57   2.082       .  S
Fe46         O62   2.011       .  S
Fe46         O56   1.926       .  S
Fe47         O65   2.166       .  S
Fe47         O52   2.093       .  S
Fe47         O59   2.124       .  S
Fe47         O48   2.163       .  S
Fe47         O56   1.942       .  S
O48          C55   1.299       .  A
O49          C63   1.279       .  A
O50          C55   1.275       .  A
O51          C54   1.250       .  A
O52          C64   1.273       .  A
O53          C66   1.272       .  A
C54          O59   1.272       .  A
C54        C1113   1.477       .  S
C55        C1100   1.498       .  S
O57          C60   1.265       .  A
O58          C60   1.252       .  A
C60        C1180   1.470       .  S
O61          C66   1.275       .  A
O62          C64   1.264       .  A
C63          O65   1.290       .  A
C63        C1130   1.543       .  S
C64        C1230   1.466       .  S
C66        C1123   1.454       .  S
Fe67         O83   2.042       .  S
Fe67         O73   2.010       .  S
Fe67         O80   2.049       .  S
Fe67         O72   2.014       .  S
Fe67         O78   1.945       .  S
Fe68         O71   2.071       .  S
Fe68         O75   2.066       .  S
Fe68         O79   2.068       .  S
Fe68         O84   2.011       .  S
Fe68         O78   1.910       .  S
Fe69         O87   2.194       .  S
Fe69         O74   2.093       .  S
Fe69         O81   2.196       .  S
Fe69         O70   2.150       .  S
Fe69         O78   1.937       .  S
O70          C77   1.299       .  A
O71          C85   1.271       .  A
O72          C77   1.282       .  A
O73          C76   1.232       .  A
O74          C86   1.278       .  A
O75          C88   1.275       .  A
C76          O81   1.277       .  A
C76        C1073   1.504       .  S
C77        C1063   1.470       .  S
O79          C82   1.261       .  A
O80          C82   1.256       .  A
C82        C1080   1.470       .  S
O83          C88   1.266       .  A
O84          C86   1.270       .  A
C85          O87   1.296       .  A
C85        C1133   1.540       .  S
C86        C1090   1.466       .  S
C88        C1220   1.439       .  S
Fe89        O105   2.048       .  S
Fe89         O95   2.014       .  S
Fe89        O102   2.026       .  S
Fe89         O94   2.004       .  S
Fe89        O100   1.955       .  S
Fe90         O93   2.080       .  S
Fe90         O97   2.070       .  S
Fe90        O101   2.078       .  S
Fe90        O106   2.030       .  S
Fe90        O100   1.905       .  S
Fe91        O109   2.179       .  S
Fe91         O96   2.085       .  S
Fe91        O103   2.157       .  S
Fe91         O92   2.193       .  S
Fe91        O100   1.928       .  S
O92          C99   1.308       .  A
O93         C107   1.275       .  A
O94          C99   1.277       .  A
O95          C98   1.239       .  A
O96         C108   1.275       .  A
O97         C110   1.275       .  A
C98         O103   1.271       .  A
C98        C1043   1.492       .  S
C99        C1030   1.500       .  S
O101        C104   1.265       .  A
O102        C104   1.254       .  A
C104       C1053   1.467       .  S
O105        C110   1.273       .  A
O106        C108   1.270       .  A
C107        O109   1.294       .  A
C107       C1213   1.546       .  S
C108       C1083   1.464       .  S
C110       C1173   1.465       .  S
Fe111       O127   2.051       .  S
Fe111       O117   2.011       .  S
Fe111       O124   2.026       .  S
Fe111       O116   2.033       .  S
Fe111       O122   1.979       .  S
Fe112       O115   2.097       .  S
Fe112       O119   2.062       .  S
Fe112       O123   2.069       .  S
Fe112       O128   2.020       .  S
Fe112       O122   1.944       .  S
Fe113       O131   2.192       .  S
Fe113       O118   2.064       .  S
Fe113       O125   2.117       .  S
Fe113       O114   2.145       .  S
Fe113       O122   1.957       .  S
O114        C121   1.292       .  A
O115        C129   1.281       .  A
O116        C121   1.273       .  A
O117        C120   1.256       .  A
O118        C130   1.265       .  A
O119        C132   1.265       .  A
C120        O125   1.278       .  A
C120       C1020   1.473       .  S
C121       C1010   1.494       .  S
O123        C126   1.266       .  A
O124        C126   1.256       .  A
C126       C1093   1.470       .  S
O127        C132   1.269       .  A
O128        C130   1.265       .  A
C129        O131   1.297       .  A
C129       C1160   1.553       .  S
C130       C1050   1.458       .  S
C132       C1120   1.452       .  S
Fe133       O149   2.018       .  S
Fe133       O139   2.026       .  S
Fe133       O146   2.047       .  S
Fe133       O138   2.007       .  S
Fe133       O144   1.968       .  S
Fe134       O137   2.096       .  S
Fe134       O141   2.085       .  S
Fe134       O145   2.072       .  S
Fe134       O150   2.044       .  S
Fe134       O144   1.918       .  S
Fe135       O153   2.166       .  S
Fe135       O140   2.059       .  S
Fe135       O147   2.124       .  S
Fe135       O136   2.142       .  S
Fe135       O144   1.949       .  S
O136        C143   1.293       .  A
O137        C151   1.277       .  A
O138        C143   1.274       .  A
O139        C142   1.253       .  A
O140        C152   1.270       .  A
O141        C154   1.278       .  A
C142        O147   1.271       .  A
C142       C1040   1.474       .  S
C143        C960   1.468       .  S
O145        C148   1.263       .  A
O146        C148   1.256       .  A
C148       C1003   1.473       .  S
O149        C154   1.269       .  A
O150        C152   1.274       .  A
C151        O153   1.290       .  A
C151        C973   1.537       .  S
C152        C990   1.459       .  S
C154        C980   1.431       .  S
Fe155       O171   2.057       .  S
Fe155       O161   2.012       .  S
Fe155       O168   2.033       .  S
Fe155       O160   2.001       .  S
Fe155       O166   1.955       .  S
Fe156       O159   2.079       .  S
Fe156       O163   2.070       .  S
Fe156       O167   2.069       .  S
Fe156       O172   2.021       .  S
Fe156       O166   1.907       .  S
Fe157       O175   2.168       .  S
Fe157       O162   2.101       .  S
Fe157       O169   2.174       .  S
Fe157       O158   2.172       .  S
Fe157       O166   1.933       .  S
O158        C165   1.301       .  A
O159        C173   1.275       .  A
O160        C165   1.276       .  A
O161        C164   1.235       .  A
O162        C174   1.279       .  A
O163        C176   1.273       .  A
C164        O169   1.275       .  A
C164       C1023   1.498       .  S
C165        C920   1.466       .  S
O167        C170   1.263       .  A
O168        C170   1.257       .  A
C170        C953   1.467       .  S
O171        C176   1.273       .  A
O172        C174   1.269       .  A
C173        O175   1.291       .  A
C173        C940   1.540       .  S
C174       C1000   1.467       .  S
C176        C933   1.465       .  S
Fe177       O193   2.010       .  S
Fe177       O183   2.015       .  S
Fe177       O190   2.039       .  S
Fe177       O182   1.989       .  S
Fe177       O188   1.964       .  S
Fe178       O181   2.076       .  S
Fe178       O185   2.087       .  S
Fe178       O189   2.062       .  S
Fe178       O194   2.036       .  S
Fe178       O188   1.902       .  S
Fe179       O197   2.188       .  S
Fe179       O184   2.063       .  S
Fe179       O191   2.135       .  S
Fe179       O180   2.179       .  S
Fe179       O188   1.936       .  S
O180        C187   1.301       .  A
O181        C195   1.274       .  A
O182        C187   1.268       .  A
O183        C186   1.250       .  A
O184        C196   1.270       .  A
O185        C198   1.279       .  A
C186        O191   1.272       .  A
C186       C1070   1.479       .  S
C187        C893   1.496       .  S
O189        C192   1.261       .  A
O190        C192   1.255       .  A
C192        C993   1.465       .  S
O193        C198   1.266       .  A
O194        C196   1.271       .  A
C195        O197   1.295       .  A
C195        C913   1.539       .  S
C196        C950   1.459       .  S
C198        C900   1.436       .  S
Fe199       O215   2.017       .  S
Fe199       O205   2.031       .  S
Fe199       O212   2.052       .  S
Fe199       O204   2.009       .  S
Fe199       O210   1.975       .  S
Fe200       O203   2.087       .  S
Fe200       O207   2.082       .  S
Fe200       O211   2.061       .  S
Fe200       O216   2.027       .  S
Fe200       O210   1.917       .  S
Fe201       O219   2.172       .  S
Fe201       O206   2.076       .  S
Fe201       O213   2.132       .  S
Fe201       O202   2.136       .  S
Fe201       O210   1.948       .  S
O202        C209   1.291       .  A
O203        C217   1.277       .  A
O204        C209   1.273       .  A
O205        C208   1.256       .  A
O206        C218   1.273       .  A
O207        C220   1.278       .  A
C208        O213   1.277       .  A
C208       C1153   1.480       .  S
C209        C863   1.470       .  S
O211        C214   1.261       .  A
O212        C214   1.257       .  A
C214        C883   1.473       .  S
O215        C220   1.267       .  A
O216        C218   1.271       .  A
C217        O219   1.290       .  A
C217        C943   1.536       .  S
C218        C870   1.462       .  S
C220        C983   1.431       .  S
Fe221       O237   2.022       .  S
Fe221       O227   2.029       .  S
Fe221       O234   2.034       .  S
Fe221       O226   2.009       .  S
Fe221       O232   1.977       .  S
Fe222       O225   2.096       .  S
Fe222       O229   2.086       .  S
Fe222       O233   2.069       .  S
Fe222       O238   2.033       .  S
Fe222       O232   1.923       .  S
Fe223       O241   2.172       .  S
Fe223       O228   2.089       .  S
Fe223       O235   2.151       .  S
Fe223       O224   2.152       .  S
Fe223       O232   1.948       .  S
O224        C231   1.295       .  A
O225        C239   1.278       .  A
O226        C231   1.272       .  A
O227        C230   1.252       .  A
O228        C240   1.277       .  A
O229        C242   1.278       .  A
C230        O235   1.278       .  A
C230       C1203   1.492       .  S
C231        C840   1.480       .  S
O233        C236   1.264       .  A
O234        C236   1.254       .  A
C236        C853   1.469       .  S
O237        C242   1.267       .  A
O238        C240   1.271       .  A
C239        O241   1.291       .  A
C239        C970   1.540       .  S
C240        C880   1.467       .  S
C242        C903   1.437       .  S
Fe243       O259   2.035       .  S
Fe243       O249   2.011       .  S
Fe243       O256   2.023       .  S
Fe243       O248   2.016       .  S
Fe243       O254   1.947       .  S
Fe244       O247   2.083       .  S
Fe244       O251   2.076       .  S
Fe244       O255   2.076       .  S
Fe244       O260   2.020       .  S
Fe244       O254   1.911       .  S
Fe245       O263   2.165       .  S
Fe245       O250   2.086       .  S
Fe245       O257   2.147       .  S
Fe245       O246   2.167       .  S
Fe245       O254   1.937       .  S
O246        C253   1.301       .  A
O247        C261   1.275       .  A
O248        C253   1.278       .  A
O249        C252   1.242       .  A
O250        C262   1.275       .  A
O251        C264   1.278       .  A
C252        O257   1.272       .  A
C252       C1110   1.486       .  S
C253        C833   1.488       .  S
O255        C258   1.263       .  A
O256        C258   1.252       .  A
C258        C873   1.469       .  S
O259        C264   1.276       .  A
O260        C262   1.270       .  A
C261        O263   1.288       .  A
C261        C910   1.541       .  S
C262        C850   1.463       .  S
C264        C930   1.464       .  S
Fe265       O281   2.029       .  S
Fe265       O271   2.087       .  S
Fe265       O278   2.055       .  S
Fe265       O270   1.992       .  S
Fe265       O276   1.936       .  S
Fe266       O269   1.997       .  S
Fe266       O273   2.105       .  S
Fe266       O277   2.032       .  S
Fe266       O282   2.112       .  S
Fe266       O276   1.935       .  S
Fe267       O285   2.132       .  S
Fe267       O272   2.115       .  S
Fe267       O279   2.028       .  S
Fe267       O268   2.194       .  S
Fe267       O276   1.943       .  S
O268        C275   1.294       .  A
O269        C283   1.268       .  A
O270        C275   1.245       .  A
O271        C274   1.274       .  A
O272        C284   1.286       .  A
O273        C286   1.278       .  A
C274        O279   1.264       .  A
C274       C1060   1.474       .  S
C275        C780   1.496       .  S
O277        C280   1.264       .  A
O278        C280   1.263       .  A
C280        C800   1.450       .  S
O281        C286   1.260       .  A
O282        C284   1.278       .  A
C283        O285   1.287       .  A
C283        C810   1.473       .  S
C284        C790   1.512       .  S
C286        C820   1.458       .  S
Fe287       O303   2.019       .  S
Fe287       O293   2.154       .  S
Fe287       O300   2.057       .  S
Fe287       O292   1.998       .  S
Fe287       O298   1.891       .  S
Fe288       O291   2.031       .  S
Fe288       O295   2.085       .  S
Fe288       O299   2.041       .  S
Fe288       O304   2.135       .  S
Fe288       O298   1.885       .  S
Fe289       O307   2.113       .  S
Fe289       O294   2.118       .  S
Fe289       O301   2.034       .  S
Fe289       O290   2.164       .  S
Fe289       O298   1.974       .  S
O290        C297   1.264       .  A
O291        C305   1.251       .  A
O292        C297   1.225       .  A
O293        C296   1.303       .  A
O294        C306   1.298       .  A
O295        C308   1.274       .  A
C296        O301   1.280       .  A
C296       C1033   1.492       .  S
C297        C743   1.497       .  S
O299        C302   1.266       .  A
O300        C302   1.274       .  A
C302        C763   1.466       .  S
O303        C308   1.257       .  A
O304        C306   1.295       .  A
C305        O307   1.270       .  A
C305        C823   1.473       .  S
C306        C750   1.524       .  S
C308        C773   1.469       .  S
Fe309       O325   2.028       .  S
Fe309       O315   2.114       .  S
Fe309       O322   2.096       .  S
Fe309       O314   2.006       .  S
Fe309       O320   1.904       .  S
Fe310       O313   2.023       .  S
Fe310       O317   2.091       .  S
Fe310       O321   2.002       .  S
Fe310       O326   2.151       .  S
Fe310       O320   1.923       .  S
Fe311       O329   2.122       .  S
Fe311       O316   2.118       .  S
Fe311       O323   2.061       .  S
Fe311       O312   2.165       .  S
Fe311       O320   1.943       .  S
O312        C319   1.282       .  A
O313        C327   1.257       .  A
O314        C319   1.246       .  A
O315        C318   1.285       .  A
O316        C328   1.290       .  A
O317        C330   1.271       .  A
C318        O323   1.274       .  A
C318       C1013   1.500       .  S
C319        C713   1.502       .  S
O321        C324   1.263       .  A
O322        C324   1.282       .  A
C324        C720   1.467       .  S
O325        C330   1.254       .  A
O326        C328   1.291       .  A
C327        O329   1.280       .  A
C327        C770   1.474       .  S
C328        C733   1.532       .  S
C330        C813   1.470       .  S
Fe331       O347   2.040       .  S
Fe331       O337   2.073       .  S
Fe331       O344   2.045       .  S
Fe331       O336   1.987       .  S
Fe331       O342   1.934       .  S
Fe332       O335   1.988       .  S
Fe332       O339   2.093       .  S
Fe332       O343   2.012       .  S
Fe332       O348   2.087       .  S
Fe332       O342   1.945       .  S
Fe333       O351   2.128       .  S
Fe333       O338   2.132       .  S
Fe333       O345   2.038       .  S
Fe333       O334   2.197       .  S
Fe333       O342   1.947       .  S
O334        C341   1.295       .  A
O335        C349   1.271       .  A
O336        C341   1.246       .  A
O337        C340   1.273       .  A
O338        C350   1.284       .  A
O339        C352   1.271       .  A
C340        O345   1.264       .  A
C340       C1190   1.473       .  S
C341        C680   1.490       .  S
O343        C346   1.265       .  A
O344        C346   1.266       .  A
C346        C803   1.446       .  S
O347        C352   1.258       .  A
O348        C350   1.270       .  A
C349        O351   1.289       .  A
C349        C703   1.467       .  S
C350        C753   1.510       .  S
C352        C693   1.464       .  S
Fe353       O369   2.020       .  S
Fe353       O359   2.115       .  S
Fe353       O366   2.107       .  S
Fe353       O358   2.018       .  S
Fe353       O364   1.908       .  S
Fe354       O357   2.019       .  S
Fe354       O361   2.102       .  S
Fe354       O365   1.995       .  S
Fe354       O370   2.151       .  S
Fe354       O364   1.907       .  S
Fe355       O373   2.128       .  S
Fe355       O360   2.119       .  S
Fe355       O367   2.061       .  S
Fe355       O356   2.167       .  S
Fe355       O364   1.934       .  S
O356        C363   1.286       .  A
O357        C371   1.259       .  A
O358        C363   1.247       .  A
O359        C362   1.284       .  A
O360        C372   1.289       .  A
O361        C374   1.274       .  A
C362        O367   1.273       .  A
C362       C1143   1.500       .  S
C363        C660   1.497       .  S
O365        C368   1.267       .  A
O366        C368   1.282       .  A
C368        C760   1.465       .  S
O369        C374   1.250       .  A
O370        C372   1.290       .  A
C371        O373   1.281       .  A
C371        C670   1.473       .  S
C372        C730   1.528       .  S
C374        C700   1.463       .  S
Fe375       O391   2.020       .  S
Fe375       O381   2.152       .  S
Fe375       O388   2.073       .  S
Fe375       O380   1.990       .  S
Fe375       O386   1.895       .  S
Fe376       O379   2.019       .  S
Fe376       O383   2.091       .  S
Fe376       O387   2.005       .  S
Fe376       O392   2.142       .  S
Fe376       O386   1.891       .  S
Fe377       O395   2.135       .  S
Fe377       O382   2.100       .  S
Fe377       O389   2.027       .  S
Fe377       O378   2.166       .  S
Fe377       O386   1.969       .  S
O378        C385   1.267       .  A
O379        C393   1.255       .  A
O380        C385   1.228       .  A
O381        C384   1.297       .  A
O382        C394   1.287       .  A
O383        C396   1.275       .  A
C384        O389   1.275       .  A
C384       C1103   1.491       .  S
C385        C653   1.488       .  S
O387        C390   1.264       .  A
O388        C390   1.275       .  A
C390        C723   1.449       .  S
O391        C396   1.258       .  A
O392        C394   1.290       .  A
C393        O395   1.280       .  A
C393        C690   1.476       .  S
C394        C793   1.509       .  S
C396        C673   1.462       .  S
Fe397       O413   2.039       .  S
Fe397       O403   2.090       .  S
Fe397       O410   2.054       .  S
Fe397       O402   1.978       .  S
Fe397       O408   1.931       .  S
Fe398       O401   2.016       .  S
Fe398       O405   2.090       .  S
Fe398       O409   2.021       .  S
Fe398       O414   2.091       .  S
Fe398       O408   1.937       .  S
Fe399       O417   2.116       .  S
Fe399       O404   2.133       .  S
Fe399       O411   2.040       .  S
Fe399       O400   2.187       .  S
Fe399       O408   1.943       .  S
O400        C407   1.291       .  A
O401        C415   1.274       .  A
O402        C407   1.242       .  A
O403        C406   1.277       .  A
O404        C416   1.285       .  A
O405        C418   1.271       .  A
C406        O411   1.267       .  A
C406        C963   1.479       .  S
C407        C740   1.480       .  S
O409        C412   1.266       .  A
O410        C412   1.268       .  A
C412        C623   1.450       .  S
O413        C418   1.258       .  A
O414        C416   1.271       .  A
C415        O417   1.288       .  A
C415        C630   1.468       .  S
C416        C613   1.510       .  S
C418        C640   1.463       .  S
Fe419       O435   2.026       .  S
Fe419       O425   2.125       .  S
Fe419       O432   2.093       .  S
Fe419       O424   2.001       .  S
Fe419       O430   1.911       .  S
Fe420       O423   2.014       .  S
Fe420       O427   2.101       .  S
Fe420       O431   1.983       .  S
Fe420       O436   2.129       .  S
Fe420       O430   1.912       .  S
Fe421       O439   2.132       .  S
Fe421       O426   2.110       .  S
Fe421       O433   2.032       .  S
Fe421       O422   2.172       .  S
Fe421       O430   1.959       .  S
O422        C429   1.280       .  A
O423        C437   1.261       .  A
O424        C429   1.240       .  A
O425        C428   1.286       .  A
O426        C438   1.288       .  A
O427        C440   1.274       .  A
C428        O433   1.270       .  A
C428        C923   1.473       .  S
C429        C710   1.503       .  S
O431        C434   1.262       .  A
O432        C434   1.280       .  A
C434        C590   1.443       .  S
O435        C440   1.255       .  A
O436        C438   1.288       .  A
C437        O439   1.283       .  A
C437        C643   1.472       .  S
C438        C580   1.523       .  S
C440        C603   1.470       .  S
Fe441       O457   2.025       .  S
Fe441       O447   2.116       .  S
Fe441       O454   2.085       .  S
Fe441       O446   1.994       .  S
Fe441       O452   1.904       .  S
Fe442       O445   2.005       .  S
Fe442       O449   2.085       .  S
Fe442       O453   2.000       .  S
Fe442       O458   2.143       .  S
Fe442       O452   1.894       .  S
Fe443       O461   2.152       .  S
Fe443       O448   2.112       .  S
Fe443       O455   2.046       .  S
Fe443       O444   2.190       .  S
Fe443       O452   1.953       .  S
O444        C451   1.281       .  A
O445        C459   1.255       .  A
O446        C451   1.234       .  A
O447        C450   1.285       .  A
O448        C460   1.287       .  A
O449        C462   1.275       .  A
C450        O455   1.271       .  A
C450        C890   1.485       .  S
C451        C783   1.495       .  S
O453        C456   1.265       .  A
O454        C456   1.276       .  A
C456        C563   1.449       .  S
O457        C462   1.257       .  A
O458        C460   1.288       .  A
C459        O461   1.286       .  A
C459        C600   1.478       .  S
C460        C570   1.520       .  S
C462        C633   1.460       .  S
Fe463       O479   2.037       .  S
Fe463       O469   2.102       .  S
Fe463       O476   2.052       .  S
Fe463       O468   1.988       .  S
Fe463       O474   1.931       .  S
Fe464       O467   2.011       .  S
Fe464       O471   2.092       .  S
Fe464       O475   2.030       .  S
Fe464       O480   2.097       .  S
Fe464       O474   1.926       .  S
Fe465       O483   2.125       .  S
Fe465       O470   2.130       .  S
Fe465       O477   2.033       .  S
Fe465       O466   2.206       .  S
Fe465       O474   1.953       .  S
O466        C473   1.289       .  A
O467        C481   1.271       .  A
O468        C473   1.236       .  A
O469        C472   1.279       .  A
O470        C482   1.287       .  A
O471        C484   1.275       .  A
C472        O477   1.267       .  A
C472        C860   1.482       .  S
C473        C663   1.497       .  S
O475        C478   1.264       .  A
O476        C478   1.264       .  A
C478        C620   1.452       .  S
O479        C484   1.262       .  A
O480        C482   1.274       .  A
C481        O483   1.288       .  A
C481        C543   1.471       .  S
C482        C583   1.511       .  S
C484        C550   1.459       .  S
Fe485       O501   2.014       .  S
Fe485       O491   2.129       .  S
Fe485       O498   2.073       .  S
Fe485       O490   2.013       .  S
Fe485       O496   1.902       .  S
Fe486       O489   2.032       .  S
Fe486       O493   2.095       .  S
Fe486       O497   2.025       .  S
Fe486       O502   2.154       .  S
Fe486       O496   1.911       .  S
Fe487       O505   2.118       .  S
Fe487       O492   2.095       .  S
Fe487       O499   2.026       .  S
Fe487       O488   2.166       .  S
Fe487       O496   1.969       .  S
O488        C495   1.273       .  A
O489        C503   1.256       .  A
O490        C495   1.233       .  A
O491        C494   1.291       .  A
O492        C504   1.289       .  A
O493        C506   1.277       .  A
C494        O499   1.273       .  A
C494        C843   1.489       .  S
C495        C683   1.494       .  S
O497        C500   1.262       .  A
O498        C500   1.275       .  A
C500        C560   1.466       .  S
O501        C506   1.256       .  A
O502        C504   1.296       .  A
C503        O505   1.275       .  A
C503        C553   1.476       .  S
C504        C610   1.523       .  S
C506        C530   1.467       .  S
Fe507       O523   2.024       .  S
Fe507       O513   2.130       .  S
Fe507       O520   2.084       .  S
Fe507       O512   2.005       .  S
Fe507       O518   1.894       .  S
Fe508       O511   2.015       .  S
Fe508       O515   2.089       .  S
Fe508       O519   2.006       .  S
Fe508       O524   2.153       .  S
Fe508       O518   1.899       .  S
Fe509       O527   2.137       .  S
Fe509       O514   2.102       .  S
Fe509       O521   2.037       .  S
Fe509       O510   2.161       .  S
Fe509       O518   1.955       .  S
O510        C517   1.275       .  A
O511        C525   1.253       .  A
O512        C517   1.238       .  A
O513        C516   1.290       .  A
O514        C526   1.287       .  A
O515        C528   1.275       .  A
C516        O521   1.275       .  A
C516        C830   1.492       .  S
C517        C650   1.500       .  S
O519        C522   1.263       .  A
O520        C522   1.279       .  A
C522        C593   1.464       .  S
O523        C528   1.257       .  A
O524        C526   1.292       .  A
C525        O527   1.280       .  A
C525        C533   1.477       .  S
C526        C573   1.522       .  S
C528        C540   1.468       .  S
C529        C530   1.412       .  A
C529        C534   1.397       .  A
C529        H536   1.083       .  S
C530        C531   1.394       .  A
C531        C532   1.393       .  A
C531        F538   1.357       .  S
C532        C533   1.414       .  A
C532        H537   1.081       .  S
C533        C534   1.400       .  A
C534        F535   1.357       .  S
C539        C540   1.397       .  A
C539        C544   1.393       .  A
C539        H546   1.083       .  S
C540        C541   1.412       .  A
C541        C542   1.396       .  A
C541        F548   1.358       .  S
C542        C543   1.399       .  A
C542        H547   1.083       .  S
C543        C544   1.411       .  A
C544        F545   1.358       .  S
C549        C550   1.403       .  A
C549        C554   1.397       .  A
C549        H556   1.084       .  S
C550        C551   1.395       .  A
C551        C552   1.395       .  A
C551        F558   1.356       .  S
C552        C553   1.411       .  A
C552        H557   1.084       .  S
C553        C554   1.406       .  A
C554        F555   1.358       .  S
C559        C560   1.409       .  A
C559        C564   1.391       .  A
C559        H566   1.083       .  S
C560        C561   1.400       .  A
C561        C562   1.387       .  A
C561        F568   1.357       .  S
C562        C563   1.400       .  A
C562        H567   1.076       .  S
C563        C564   1.400       .  A
C564        F565   1.357       .  S
C569        C570   1.410       .  A
C569        C574   1.419       .  A
C569        H576   1.081       .  S
C570        C571   1.414       .  A
C571        C572   1.417       .  A
C571        F578   1.357       .  S
C572        C573   1.411       .  A
C572        H577   1.083       .  S
C573        C574   1.415       .  A
C574        F575   1.357       .  S
C579        C580   1.411       .  A
C579        C584   1.406       .  A
C579        H586   1.083       .  S
C580        C581   1.418       .  A
C581        C582   1.424       .  A
C581        F588   1.356       .  S
C582        C583   1.412       .  A
C582        H587   1.083       .  S
C583        C584   1.408       .  A
C584        F585   1.354       .  S
C589        C590   1.399       .  A
C589        C594   1.385       .  A
C589        H596   1.079       .  S
C590        C591   1.403       .  A
C591        C592   1.391       .  A
C591        F598   1.358       .  S
C592        C593   1.409       .  A
C592        H597   1.083       .  S
C593        C594   1.400       .  A
C594        F595   1.354       .  S
C599        C600   1.398       .  A
C599        C604   1.399       .  A
C599        H606   1.083       .  S
C600        C601   1.418       .  A
C601        C602   1.398       .  A
C601        F608   1.358       .  S
C602        C603   1.395       .  A
C602        H607   1.083       .  S
C603        C604   1.412       .  A
C604        F605   1.357       .  S
C609        C610   1.412       .  A
C609        C614   1.410       .  A
C609        H616   1.083       .  S
C610        C611   1.418       .  A
C611        C612   1.421       .  A
C611        F618   1.356       .  S
C612        C613   1.410       .  A
C612        H617   1.083       .  S
C613        C614   1.410       .  A
C614        F615   1.356       .  S
C619        C620   1.382       .  A
C619        C624   1.385       .  A
C619        H626   1.084       .  S
C620        C621   1.408       .  A
C621        C622   1.382       .  A
C621        F628   1.337       .  S
C622        C623   1.380       .  A
C622        H627   1.084       .  S
C623        C624   1.411       .  A
C624        F625   1.340       .  S
C629        C630   1.399       .  A
C629        C634   1.395       .  A
C629        H636   1.084       .  S
C630        C631   1.410       .  A
C631        C632   1.392       .  A
C631        F638   1.358       .  S
C632        C633   1.397       .  A
C632        H637   1.083       .  S
C633        C634   1.409       .  A
C634        F635   1.358       .  S
C639        C640   1.405       .  A
C639        C644   1.396       .  A
C639        H646   1.083       .  S
C640        C641   1.396       .  A
C641        C642   1.398       .  A
C641        F648   1.356       .  S
C642        C643   1.413       .  A
C642        H647   1.084       .  S
C643        C644   1.403       .  A
C644        F645   1.358       .  S
C649        C650   1.421       .  A
C649        C654   1.405   1_655  A
C649        H656   1.078       .  S
C650        C651   1.402   1_655  A
C651        C652   1.404       .  A
C651        F658   1.357       .  S
C652        C653   1.416       .  A
C652        H657   1.082       .  S
C653        C654   1.396       .  A
C654        F655   1.357       .  S
C659        C660   1.421       .  A
C659        C664   1.417       .  A
C659        H666   1.083       .  S
C660        C661   1.399       .  A
C661        C662   1.398       .  A
C661        F668   1.358       .  S
C662        C663   1.417       .  A
C662        H667   1.083       .  S
C663        C664   1.403       .  A
C664        F665   1.356       .  S
C669        C670   1.400       .  A
C669        C674   1.396       .  A
C669        H676   1.083       .  S
C670        C671   1.414       .  A
C671        C672   1.395       .  A
C671        F678   1.357       .  S
C672        C673   1.395       .  A
C672        H677   1.083       .  S
C673        C674   1.409       .  A
C674        F675   1.358       .  S
C679        C680   1.408       .  A
C679        C684   1.419   1_565  A
C679        H686   1.082       .  S
C680        C681   1.416       .  A
C681        C682   1.396   1_565  A
C681        F688   1.354       .  S
C682        C683   1.395       .  A
C682        H687   1.080       .  S
C683        C684   1.418       .  A
C684        F685   1.356       .  S
C689        C690   1.401       .  A
C689        C694   1.398       .  A
C689        H696   1.083       .  S
C690        C691   1.414       .  A
C691        C692   1.396       .  A
C691        F698   1.358       .  S
C692        C693   1.395       .  A
C692        H697   1.083       .  S
C693        C694   1.408       .  A
C694        F695   1.357       .  S
C699        C700   1.394       .  A
C699        C704   1.393       .  A
C699        H706   1.083       .  S
C700        C701   1.413       .  A
C701        C702   1.397       .  A
C701        F708   1.358       .  S
C702        C703   1.396       .  A
C702        H707   1.084       .  S
C703        C704   1.412       .  A
C704        F705   1.358       .  S
C709        C710   1.422       .  A
C709        C714   1.405   1_655  A
C709        H716   1.083       .  S
C710        C711   1.399   1_655  A
C711        C712   1.407       .  A
C711        F718   1.357       .  S
C712        C713   1.422       .  A
C712        H717   1.083       .  S
C713        C714   1.400       .  A
C714        F715   1.357       .  S
C719        C720   1.399       .  A
C719        C724   1.391       .  A
C719        H726   1.081       .  S
C720        C721   1.413       .  A
C721        C722   1.387       .  A
C721        F728   1.358       .  S
C722        C723   1.398       .  A
C722        H727   1.084       .  S
C723        C724   1.405       .  A
C724        F725   1.357       .  S
C729        C730   1.411       .  A
C729        C734   1.421       .  A
C729        H736   1.083       .  S
C730        C731   1.416       .  A
C731        C732   1.420       .  A
C731        F738   1.356       .  S
C732        C733   1.412       .  A
C732        H737   1.083       .  S
C733        C734   1.420       .  A
C734        F735   1.357       .  S
C739        C740   1.414       .  A
C739        C744   1.402       .  A
C739        H746   1.083       .  S
C740        C741   1.406       .  A
C741        C742   1.413       .  A
C741        F748   1.357       .  S
C742        C743   1.416       .  A
C742        H747   1.083       .  S
C743        C744   1.402       .  A
C744        F745   1.356       .  S
C749        C750   1.413       .  A
C749        C754   1.404       .  A
C749        H756   1.083       .  S
C750        C751   1.417       .  A
C751        C752   1.425       .  A
C751        F758   1.356       .  S
C752        C753   1.413       .  A
C752        H757   1.083       .  S
C753        C754   1.406       .  A
C754        F755   1.356       .  S
C759        C760   1.409       .  A
C759        C764   1.395       .  A
C759        H766   1.084       .  S
C760        C761   1.401       .  A
C761        C762   1.391       .  A
C761        F768   1.357       .  S
C762        C763   1.405       .  A
C762        H767   1.080       .  S
C763        C764   1.404       .  A
C764        F765   1.357       .  S
C769        C770   1.399       .  A
C769        C774   1.395       .  A
C769        H776   1.083       .  S
C770        C771   1.413       .  A
C771        C772   1.393       .  A
C771        F778   1.355       .  S
C772        C773   1.397       .  A
C772        H777   1.084       .  S
C773        C774   1.413       .  A
C774        F775   1.358       .  S
C779        C780   1.423       .  A
C779        C784   1.411   1_565  A
C779        H786   1.084       .  S
C780        C781   1.402       .  A
C781        C782   1.406   1_565  A
C781        F788   1.357       .  S
C782        C783   1.417       .  A
C782        H787   1.082       .  S
C783        C784   1.400       .  A
C784        F785   1.356       .  S
C789        C790   1.410       .  A
C789        C794   1.414       .  A
C789        H796   1.080       .  S
C790        C791   1.413       .  A
C791        C792   1.414       .  A
C791        F798   1.357       .  S
C792        C793   1.408       .  A
C792        H797   1.081       .  S
C793        C794   1.411       .  A
C794        F795   1.357       .  S
C799        C800   1.385       .  A
C799        C804   1.388       .  A
C799        H806   1.083       .  S
C800        C801   1.403       .  A
C801        C802   1.377       .  A
C801        F808   1.328       .  S
C802        C803   1.376       .  A
C802        H807   1.083       .  S
C803        C804   1.413       .  A
C804        F805   1.342       .  S
C809        C810   1.410       .  A
C809        C814   1.395       .  A
C809        H816   1.084       .  S
C810        C811   1.400       .  A
C811        C812   1.400       .  A
C811        F818   1.357       .  S
C812        C813   1.411       .  A
C812        H817   1.084       .  S
C813        C814   1.398       .  A
C814        F815   1.356       .  S
C819        C820   1.404       .  A
C819        C824   1.396       .  A
C819        H826   1.084       .  S
C820        C821   1.395       .  A
C821        C822   1.395       .  A
C821        F828   1.357       .  S
C822        C823   1.412       .  A
C822        H827   1.084       .  S
C823        C824   1.405       .  A
C824        F825   1.358       .  S
C829        C830   1.414       .  A
C829        C834   1.403   1_556  A
C829        H836   1.083       .  S
C830        C831   1.406       .  A
C831        C832   1.399   1_556  A
C831        F838   1.357       .  S
C832        C833   1.410       .  A
C832        H837   1.083       .  S
C833        C834   1.404       .  A
C834        F835   1.357       .  S
C839        C840   1.410       .  A
C839        C844   1.398   1_554  A
C839        H846   1.084       .  S
C840        C841   1.401       .  A
C841        C842   1.400   1_554  A
C841        F848   1.358       .  S
C842        C843   1.415       .  A
C842        H847   1.083       .  S
C843        C844   1.405       .  A
C844        F845   1.357       .  S
C849        C850   1.398       .  A
C849        C854   1.396       .  A
C849        H856   1.083       .  S
C850        C851   1.407       .  A
C851        C852   1.390       .  A
C851        F858   1.359       .  S
C852        C853   1.398       .  A
C852        H857   1.082       .  S
C853        C854   1.412       .  A
C854        F855   1.358       .  S
C859        C860   1.412       .  A
C859        C864   1.397   1_556  A
C859        H866   1.083       .  S
C860        C861   1.406       .  A
C861        C862   1.395   1_556  A
C861        F868   1.358       .  S
C862        C863   1.406       .  A
C862        H867   1.084       .  S
C863        C864   1.401       .  A
C864        F865   1.358       .  S
C869        C870   1.407       .  A
C869        C874   1.393       .  A
C869        H876   1.083       .  S
C870        C871   1.398       .  A
C871        C872   1.393       .  A
C871        F878   1.358       .  S
C872        C873   1.410       .  A
C872        H877   1.083       .  S
C873        C874   1.401       .  A
C874        F875   1.357       .  S
C879        C880   1.406       .  A
C879        C884   1.393       .  A
C879        H886   1.084       .  S
C880        C881   1.402       .  A
C881        C882   1.397       .  A
C881        F888   1.358       .  S
C882        C883   1.408       .  A
C882        H887   1.083       .  S
C883        C884   1.403       .  A
C884        F885   1.358       .  S
C889        C890   1.396       .  A
C889        C894   1.388       .  A
C889        H896   1.084       .  S
C890        C891   1.415       .  A
C891        C892   1.410       .  A
C891        F898   1.357       .  S
C892        C893   1.406       .  A
C892        H897   1.083       .  S
C893        C894   1.421       .  A
C894        F895   1.359       .  S
C899        C900   1.402       .  A
C899        C904   1.389       .  A
C899        H906   1.069       .  S
C900        C901   1.383       .  A
C901        C902   1.383       .  A
C901        F908   1.357       .  S
C902        C903   1.395       .  A
C902        H907   1.065       .  S
C903        C904   1.386       .  A
C904        F905   1.357       .  S
C909        C910   1.413       .  A
C909        C914   1.408       .  A
C909        H916   1.083       .  S
C910        C911   1.421       .  A
C911        C912   1.436       .  A
C911        F918   1.356       .  S
C912        C913   1.419       .  A
C912        H917   1.082       .  S
C913        C914   1.417       .  A
C914        F915   1.358       .  S
C919        C920   1.396       .  A
C919        C924   1.384       .  A
C919        H926   1.085       .  S
C920        C921   1.411       .  A
C921        C922   1.413       .  A
C921        F928   1.357       .  S
C922        C923   1.406       .  A
C922        H927   1.083       .  S
C923        C924   1.403       .  A
C924        F925   1.352       .  S
C929        C930   1.407       .  A
C929        C934   1.395       .  A
C929        H936   1.082       .  S
C930        C931   1.401       .  A
C931        C932   1.381       .  A
C931        F938   1.356       .  S
C932        C933   1.401       .  A
C932        H937   1.074       .  S
C933        C934   1.403       .  A
C934        F935   1.357       .  S
C939        C940   1.419       .  A
C939        C944   1.434       .  A
C939        H946   1.082       .  S
C940        C941   1.419       .  A
C941        C942   1.407       .  A
C941        F948   1.356       .  S
C942        C943   1.410       .  A
C942        H947   1.083       .  S
C943        C944   1.420       .  A
C944        F945   1.356       .  S
C949        C950   1.405       .  A
C949        C954   1.390       .  A
C949        H956   1.084       .  S
C950        C951   1.400       .  A
C951        C952   1.392       .  A
C951        F958   1.358       .  S
C952        C953   1.408       .  A
C952        H957   1.083       .  S
C953        C954   1.402       .  A
C954        F955   1.358       .  S
C959        C960   1.406       .  A
C959        C964   1.395       .  A
C959        H966   1.084       .  S
C960        C961   1.401       .  A
C961        C962   1.398       .  A
C961        F968   1.358       .  S
C962        C963   1.410       .  A
C962        H967   1.083       .  S
C963        C964   1.405       .  A
C964        F965   1.358       .  S
C969        C970   1.414       .  A
C969        C974   1.412       .  A
C969        H976   1.083       .  S
C970        C971   1.420       .  A
C971        C972   1.431       .  A
C971        F978   1.356       .  S
C972        C973   1.418       .  A
C972        H977   1.082       .  S
C973        C974   1.417       .  A
C974        F975   1.358       .  S
C979        C980   1.398       .  A
C979        C984   1.384       .  A
C979        H986   1.065       .  S
C980        C981   1.383       .  A
C981        C982   1.384       .  A
C981        F988   1.357       .  S
C982        C983   1.398       .  A
C982        H987   1.066       .  S
C983        C984   1.383       .  A
C984        F985   1.357       .  S
C989        C990   1.400       .  A
C989        C994   1.393       .  A
C989        H996   1.084       .  S
C990        C991   1.404       .  A
C991        C992   1.390       .  A
C991        F998   1.358       .  S
C992        C993   1.402       .  A
C992        H997   1.084       .  S
C993        C994   1.409       .  A
C994        F995   1.358       .  S
C999       C1000   1.409       .  A
C999       C1004   1.395       .  A
C999       H1006   1.084       .  S
C1000      C1001   1.400       .  A
C1001      C1002   1.398       .  A
C1001      F1008   1.358       .  S
C1002      C1003   1.409       .  A
C1002      H1007   1.083       .  S
C1003      C1004   1.401       .  A
C1004      F1005   1.357       .  S
C1009      C1010   1.404       .  A
C1009      C1014   1.407       .  A
C1009      H1016   1.083       .  S
C1010      C1011   1.413       .  A
C1011      C1012   1.402       .  A
C1011      F1018   1.358       .  S
C1012      C1013   1.405       .  A
C1012      H1017   1.083       .  S
C1013      C1014   1.418       .  A
C1014      F1015   1.357       .  S
C1019      C1020   1.389       .  A
C1019      C1024   1.392   1_455  A
C1019      H1026   1.085       .  S
C1020      C1021   1.419       .  A
C1021      C1022   1.413       .  A
C1021      F1028   1.357       .  S
C1022      C1023   1.401   1_455  A
C1022      H1027   1.083       .  S
C1023      C1024   1.424       .  A
C1024      F1025   1.356       .  S
C1029      C1030   1.416       .  A
C1029      C1034   1.397       .  A
C1029      H1036   1.083       .  S
C1030      C1031   1.406       .  A
C1031      C1032   1.409       .  A
C1031      F1038   1.357       .  S
C1032      C1033   1.415       .  A
C1032      H1037   1.083       .  S
C1033      C1034   1.402       .  A
C1034      F1035   1.358       .  S
C1039      C1040   1.416       .  A
C1039      C1044   1.411       .  A
C1039      H1046   1.081       .  S
C1040      C1041   1.395       .  A
C1041      C1042   1.394       .  A
C1041      F1048   1.358       .  S
C1042      C1043   1.414       .  A
C1042      H1047   1.077       .  S
C1043      C1044   1.401       .  A
C1044      F1045   1.356       .  S
C1049      C1050   1.405       .  A
C1049      C1054   1.391       .  A
C1049      H1056   1.084       .  S
C1050      C1051   1.398       .  A
C1051      C1052   1.393       .  A
C1051      F1058   1.358       .  S
C1052      C1053   1.410       .  A
C1052      H1057   1.083       .  S
C1053      C1054   1.401       .  A
C1054      F1055   1.358       .  S
C1059      C1060   1.402       .  A
C1059      C1064   1.391       .  A
C1059      H1066   1.083       .  S
C1060      C1061   1.413       .  A
C1061      C1062   1.394       .  A
C1061      F1068   1.358       .  S
C1062      C1063   1.400       .  A
C1062      H1067   1.083       .  S
C1063      C1064   1.409       .  A
C1064      F1065   1.358       .  S
C1069      C1070   1.420       .  A
C1069      C1074   1.418       .  A
C1069      H1076   1.080       .  S
C1070      C1071   1.391   1_545  A
C1071      C1072   1.391       .  A
C1071      F1078   1.359       .  S
C1072      C1073   1.421       .  A
C1072      H1077   1.079       .  S
C1073      C1074   1.403   1_565  A
C1074      F1075   1.356       .  S
C1079      C1080   1.406       .  A
C1079      C1084   1.396       .  A
C1079      H1086   1.083       .  S
C1080      C1081   1.403       .  A
C1081      C1082   1.393       .  A
C1081      F1088   1.357       .  S
C1082      C1083   1.406       .  A
C1082      H1087   1.084       .  S
C1083      C1084   1.402       .  A
C1084      F1085   1.358       .  S
C1089      C1090   1.408       .  A
C1089      C1094   1.391       .  A
C1089      H1096   1.084       .  S
C1090      C1091   1.397       .  A
C1091      C1092   1.395       .  A
C1091      F1098   1.357       .  S
C1092      C1093   1.412       .  A
C1092      H1097   1.083       .  S
C1093      C1094   1.400       .  A
C1094      F1095   1.358       .  S
C1099      C1100   1.415       .  A
C1099      C1104   1.399   1_554  A
C1099      H1106   1.083       .  S
C1100      C1101   1.406       .  A
C1101      C1102   1.406   1_554  A
C1101      F1108   1.357       .  S
C1102      C1103   1.413       .  A
C1102      H1107   1.083       .  S
C1103      C1104   1.403       .  A
C1104      F1105   1.358       .  S
C1109      C1110   1.396   1_455  A
C1109      C1114   1.404       .  A
C1109      H1116   1.083       .  S
C1110      C1111   1.420       .  A
C1111      C1112   1.398   1_655  A
C1111      F1118   1.355       .  S
C1112      C1113   1.392       .  A
C1112      H1117   1.084       .  S
C1113      C1114   1.417       .  A
C1114      F1115   1.352       .  S
C1119      C1120   1.395       .  A
C1119      C1124   1.376       .  A
C1119      H1126   1.073       .  S
C1120      C1121   1.397       .  A
C1121      C1122   1.395       .  A
C1121      F1128   1.355       .  S
C1122      C1123   1.408       .  A
C1122      H1127   1.083       .  S
C1123      C1124   1.394       .  A
C1124      F1125   1.355       .  S
C1129      C1130   1.412       .  A
C1129      C1134   1.409       .  A
C1129      H1136   1.083       .  S
C1130      C1131   1.423       .  A
C1131      C1132   1.437       .  A
C1131      F1138   1.356       .  S
C1132      C1133   1.419       .  A
C1132      H1137   1.082       .  S
C1133      C1134   1.418       .  A
C1134      F1135   1.357       .  S
C1139      C1140   1.403       .  A
C1139      C1144   1.408   1_554  A
C1139      H1146   1.084       .  S
C1140      C1141   1.412       .  A
C1141      C1142   1.403   1_554  A
C1141      F1148   1.358       .  S
C1142      C1143   1.405       .  A
C1142      H1147   1.083       .  S
C1143      C1144   1.418       .  A
C1144      F1145   1.358       .  S
C1149      C1150   1.415       .  A
C1149      C1154   1.397       .  A
C1149      H1156   1.076       .  S
C1150      C1151   1.403       .  A
C1151      C1152   1.413       .  A
C1151      F1158   1.357       .  S
C1152      C1153   1.416       .  A
C1152      H1157   1.082       .  S
C1153      C1154   1.395       .  A
C1154      F1155   1.358       .  S
C1159      C1160   1.411       .  A
C1159      C1164   1.412       .  A
C1159      H1166   1.080       .  S
C1160      C1161   1.423       .  A
C1161      C1162   1.442       .  A
C1161      F1168   1.356       .  S
C1162      C1163   1.424       .  A
C1162      H1167   1.082       .  S
C1163      C1164   1.419       .  A
C1164      F1165   1.356       .  S
C1169      C1170   1.405       .  A
C1169      C1174   1.395       .  A
C1169      H1176   1.081       .  S
C1170      C1171   1.399       .  A
C1171      C1172   1.382       .  A
C1171      F1178   1.354       .  S
C1172      C1173   1.402       .  A
C1172      H1177   1.075       .  S
C1173      C1174   1.402       .  A
C1174      F1175   1.355       .  S
C1179      C1180   1.411       .  A
C1179      C1184   1.393       .  A
C1179      H1186   1.083       .  S
C1180      C1181   1.401       .  A
C1181      C1182   1.394       .  A
C1181      F1188   1.357       .  S
C1182      C1183   1.409       .  A
C1182      H1187   1.084       .  S
C1183      C1184   1.398       .  A
C1184      F1185   1.358       .  S
C1189      C1190   1.403       .  A
C1189      C1194   1.391   1_556  A
C1189      H1196   1.083       .  S
C1190      C1191   1.412       .  A
C1191      C1192   1.396   1_556  A
C1191      F1198   1.358       .  S
C1192      C1193   1.399       .  A
C1192      H1197   1.084       .  S
C1193      C1194   1.404       .  A
C1194      F1195   1.358       .  S
C1199      C1200   1.419       .  A
C1199      C1204   1.404       .  A
C1199      H1206   1.070       .  S
C1200      C1201   1.402   1_565  A
C1201      C1202   1.413       .  A
C1201      F1208   1.356       .  S
C1202      C1203   1.417       .  A
C1202      H1207   1.077       .  S
C1203      C1204   1.396   1_545  A
C1204      F1205   1.358       .  S
C1209      C1210   1.408       .  A
C1209      C1214   1.407       .  A
C1209      H1216   1.083       .  S
C1210      C1211   1.420       .  A
C1211      C1212   1.436       .  A
C1211      F1218   1.356       .  S
C1212      C1213   1.421       .  A
C1212      H1217   1.082       .  S
C1213      C1214   1.423       .  A
C1214      F1215   1.357       .  S
C1219      C1220   1.375       .  A
C1219      C1224   1.376       .  A
C1219      H1226   1.084       .  S
C1220      C1221   1.410       .  A
C1221      C1222   1.387       .  A
C1221      F1228   1.330       .  S
C1222      C1223   1.379       .  A
C1222      H1227   1.083       .  S
C1223      C1224   1.393       .  A
C1224      F1225   1.323       .  S
C1229      C1230   1.409       .  A
C1229      C1234   1.396       .  A
C1229      H1236   1.083       .  S
C1230      C1231   1.399       .  A
C1231      C1232   1.397       .  A
C1231      F1238   1.358       .  S
C1232      C1233   1.411       .  A
C1232      H1237   1.083       .  S
C1233      C1234   1.401       .  A
C1234      F1235   1.357       .  S
C1239      C1240   1.395       .  A
C1239      C1244   1.395       .  A
C1239      H1246   1.083       .  S
C1240      C1241   1.409       .  A
C1241      C1242   1.392       .  A
C1241      F1248   1.357       .  S
C1242      C1243   1.398       .  A
C1242      H1247   1.083       .  S
C1243      C1244   1.415       .  A
C1244      F1245   1.358       .  S
