geometry optimzed in LAMMPS
_audit_creation_date              2020-11-30 
_audit_creation_method            'lammps2cif' 
_symmetry_space_group_name_H-M    'P1' 
_symmetry_Int_Tables_number       1 
_symmetry_cell_setting            triclinic 
loop_ 
_symmetry_equiv_pos_as_xyz 
  x,y,z 
_cell_length_a                    29.626601165466504 
_cell_length_b                    29.338875965187167 
_cell_length_c                    54.78110845367216 
_cell_angle_alpha                 90.61242244904933 
_cell_angle_beta                  89.74498456985806 
_cell_angle_gamma                 88.83693829256214 
loop_ 
_atom_site_label 
_atom_site_type_symbol 
_atom_site_fract_x 
_atom_site_fract_y 
_atom_site_fract_z 
_atom_site_charge 
Zr1        Zr  0.92512489  0.41975950  0.73246525     2.17510
O2          O  0.87891566  0.37082762  0.70687760    -0.52170
O3          O  0.87737823  0.41707689  0.76903266    -0.75380
O4          O  0.94164239  0.33842127  0.73841061    -0.82160
O5          O  0.86383589  0.52288449  0.70568313    -0.83910
O6          O  0.00975198  0.33163901  0.75722199    -0.79530
O7          O  0.85445237  0.44834088  0.71459777    -0.91170
O8          O  0.88696847  0.47945147  0.79302483    -0.77130
O9          O  0.96651618  0.42488957  0.76953495    -0.86620
O10         O  0.91698854  0.49608453  0.74683837    -0.86310
O11         O  0.00198896  0.40078003  0.72074711    -0.73070
O12         O  0.95592489  0.46429227  0.69975473    -0.85200
Zr13       Zr  0.06649982  0.52746356  0.74374622     2.26420
Zr14       Zr  0.04264699  0.40536542  0.75836405     2.06270
Zr15       Zr  0.94513287  0.54022900  0.71462767     2.10050
Zr16       Zr  0.96049007  0.50250261  0.78315064     1.78760
O17         O  0.93732913  0.55911441  0.67169643    -0.94010
O18         O  0.97314678  0.45997907  0.82060366    -0.41810
O19         O  0.98873511  0.54820322  0.75150447    -0.78450
O20         O  0.03630610  0.48090118  0.77471166    -0.97130
O21         O  0.07583901  0.45214631  0.72831149    -0.90440
O22         O  0.02407050  0.52426218  0.70635342    -0.93280
C23         C  0.86689286  0.44314619  0.78741389     1.00470
C24         C  0.83892640  0.48700943  0.70706896     1.13400
C25         C  0.97422282  0.31504460  0.74786259     1.04180
O26         O  0.04624432  0.37375279  0.79924552    -0.95430
O27         O  0.11432242  0.42255866  0.77624694    -0.91180
O28         O  0.12923171  0.49723998  0.76959225    -0.84320
C29         C  0.13869400  0.45776705  0.77885093     1.10820
O30         O  0.00381114  0.40907681  0.65622555    -0.97410
Zr31       Zr  0.03542318  0.44948861  0.69111353     1.88940
O32         O  0.12911042  0.52733225  0.71592242    -0.74060
O33         O  0.09915209  0.35250906  0.74123773    -0.53320
O34         O  0.07551630  0.37792452  0.68200987    -0.98000
O35         O  0.03697384  0.49374603  0.65363355    -0.55220
O36         O  0.11498763  0.47220834  0.68771278    -0.74570
C37         C  0.14089510  0.50160435  0.69794078     0.97770
O38         O  0.09135473  0.58557752  0.77268896    -0.63390
O39         O  0.89909050  0.60571951  0.72788828    -0.58200
O40         O  0.05635371  0.60434182  0.72967357    -0.94880
O41         O  0.98474183  0.61087862  0.71448322    -0.93310
O42         O  0.91698984  0.57088208  0.79452439    -0.93660
O43         O  0.99550093  0.55489965  0.81195856    -0.92450
C44         C  0.02301141  0.62695297  0.72066536     1.16610
H45         H  0.88579579  0.50462880  0.74997714     0.32560
H46         H  0.05305189  0.48351978  0.78973934     0.43410
H47         H  0.03579472  0.54566934  0.69469473     0.36930
H48         H  0.00412328  0.37036856  0.71389106     0.33410
H49         H  0.96237653  0.48048574  0.83395044     0.25200
H50         H  0.10450281  0.32978214  0.75420812     0.31140
H51         H  0.10025183  0.38621435  0.67077356     0.37050
H52         H  0.90526173  0.56500537  0.81113503     0.31510
H53         H  0.87871300  0.61230621  0.71404138     0.30390
H54         H  0.92380735  0.59028950  0.67181188     0.32070
H55         H  0.06151145  0.51584554  0.65577951     0.31030
H56         H  0.02283812  0.53872722  0.81800143     0.35030
H57         H  0.06354280  0.60326838  0.77693432     0.27770
H58         H  0.86384201  0.34976486  0.71818381     0.32000
H59         H  0.02835621  0.40672466  0.64390320     0.34850
H60         H  0.87919176  0.59385971  0.74083237     0.27460
H61         H  0.09857931  0.56924290  0.78794711     0.40330
H62         H  0.01435134  0.37148868  0.80449847     0.30390
H63         H  0.95114022  0.43500570  0.82016977     0.38000
H64         H  0.00885971  0.51253936  0.65403536     0.29850
H65         H  0.08329976  0.33554620  0.72823116     0.29920
H66         H  0.90051360  0.35142969  0.69735298     0.30180
Zr67       Zr  0.04887286  0.01927904  0.72549157     2.17510
O68         O  0.08338342  0.06315437  0.69310749    -0.52170
O69         O  0.09312331  0.04404887  0.75988482    -0.75380
O70         O  0.02689690  0.10014134  0.73003431    -0.82160
O71         O  0.12073145  0.91337422  0.71045742    -0.83910
O72         O  0.95871538  0.10278939  0.74947927    -0.79530
O73         O  0.12425288  0.99041763  0.71232425    -0.91170
O74         O  0.08640779  0.99031501  0.78932000    -0.77130
O75         O  0.00651472  0.01959111  0.76275357    -0.86620
O76         O  0.06471102  0.94909095  0.74545342    -0.86310
O77         O  0.97070586  0.02753288  0.71384939    -0.73070
O78         O  0.02390421  0.96215010  0.69698493    -0.85200
Zr79       Zr  0.91666218  0.90080002  0.74454530     2.26420
Zr80       Zr  0.92919974  0.02778418  0.75155483     2.06270
Zr81       Zr  0.04010915  0.89262312  0.71749748     2.10050
Zr82       Zr  0.02052304  0.94830714  0.78182364     1.78760
O83         O  0.03215108  0.85897918  0.67694903    -0.94010
O84         O  0.00376818  0.99009903  0.81957796    -0.41810
O85         O  0.99565053  0.89228831  0.75444569    -0.78450
O86         O  0.94274443  0.95786433  0.77236688    -0.97130
O87         O  0.90268486  0.97086219  0.72460473    -0.90440
O88         O  0.96087232  0.89828177  0.70720424    -0.93280
C89         C  0.10241863  0.02662612  0.78062947     1.00470
C90         C  0.14317810  0.95072085  0.70887449     1.13400
C91         C  0.99314021  0.12149208  0.74013975     1.04180
O92         O  0.91639638  0.06693024  0.79051129    -0.95430
O93         O  0.85854428  0.00749832  0.77024615    -0.91180
O94         O  0.85270532  0.93030757  0.76982613    -0.84320
C95         C  0.83868463  0.97075618  0.77613639     1.10820
O96         O  0.98098349  0.99430464  0.65041390    -0.97410
Zr97       Zr  0.94417804  0.96806161  0.68750691     1.88940
O98         O  0.85370576  0.89324255  0.71673314    -0.74060
O99         O  0.87246733  0.07336854  0.73028014    -0.53320
O100        O  0.90502186  0.03540531  0.67178528    -0.98000
O101        O  0.93682601  0.91239354  0.65433284    -0.55220
O102        O  0.86416337  0.94786771  0.68827964    -0.74570
C103        C  0.83939015  0.91936269  0.69969384     0.97770
O104        O  0.88999931  0.84828899  0.77558519    -0.63390
O105        O  0.08710414  0.82340901  0.71708212    -0.58200
O106        O  0.93959204  0.82356324  0.73382247    -0.94880
O107        O  0.01012471  0.83716489  0.74478377    -0.93310
O108        O  0.07419030  0.88760992  0.79210458    -0.93660
O109        O  0.99562836  0.90184941  0.81570470    -0.92450
C110        C  0.98014279  0.80988007  0.73744878     1.16610
H111        H  0.09608046  0.94494856  0.74984224     0.32560
H112        H  0.92628205  0.95740486  0.78768094     0.43410
H113        H  0.95224646  0.87272380  0.69710459     0.36930
H114        H  0.96609697  0.05615189  0.70561160     0.33410
H115        H  0.03298246  0.99204290  0.82820582     0.25200
H116        H  0.86318911  0.09745143  0.74218983     0.31140
H117        H  0.88117718  0.02331721  0.66103270     0.37050
H118        H  0.09197136  0.90018362  0.80579091     0.31510
H119        H  0.10310652  0.82314833  0.70119355     0.30390
H120        H  0.05595728  0.87335997  0.66708584     0.32070
H121        H  0.91824408  0.92812426  0.64189268     0.31030
H122        H  0.97909746  0.87662470  0.80787491     0.35030
H123        H  0.90977649  0.82073006  0.77494417     0.27770
H124        H  0.09977588  0.08772847  0.70161133     0.32000
H125        H  0.95675809  0.99927343  0.63827578     0.34850
H126        H  0.11086481  0.82897754  0.72936574     0.27460
H127        H  0.89824114  0.86305414  0.79123787     0.40330
H128        H  0.94625519  0.07846697  0.79537799     0.30390
H129        H  0.99694732  0.02168498  0.81438489     0.38000
H130        H  0.91666389  0.88869935  0.66067685     0.29850
H131        H  0.88926285  0.08966992  0.71749160     0.29920
H132        H  0.05782800  0.07890343  0.68492257     0.30180
Zr133      Zr  0.55357842  0.41301417  0.66063147     2.17510
O134        O  0.59635512  0.36585822  0.68909814    -0.52170
O135        O  0.59462181  0.39320733  0.62343552    -0.75380
O136        O  0.53430654  0.33287347  0.65644410    -0.82160
O137        O  0.61672773  0.51612366  0.68398054    -0.83910
O138        O  0.47250945  0.33080316  0.63193607    -0.79530
O139        O  0.62603060  0.44064607  0.67647168    -0.91170
O140        O  0.60007169  0.45989096  0.60355462    -0.77130
O141        O  0.51667519  0.41960869  0.62199074    -0.86620
O142        O  0.56651135  0.48753619  0.64567958    -0.86310
O143        O  0.47469050  0.40095664  0.66953329    -0.73070
O144        O  0.52009028  0.46157937  0.69188105    -0.85200
Zr145      Zr  0.41600731  0.52940648  0.64256134     2.26420
Zr146      Zr  0.43932697  0.40541240  0.63029818     2.06270
Zr147      Zr  0.53462843  0.53490566  0.67651337     2.10050
Zr148      Zr  0.52784445  0.49553403  0.60809438     1.78760
O149        O  0.52490533  0.54716518  0.72023279    -0.94010
O150        O  0.52351505  0.46980111  0.56577320    -0.41810
O151        O  0.49550290  0.54361478  0.63811578    -0.78450
O152        O  0.44999707  0.47903668  0.61307051    -0.97130
O153        O  0.40399920  0.45624318  0.65860666    -0.90440
O154        O  0.45395804  0.52740947  0.68159674    -0.93280
C155        C  0.60821967  0.41755875  0.60568346     1.00470
C156        C  0.64215175  0.47959446  0.68265324     1.13400
C157        C  0.50393800  0.31190712  0.64428082     1.04180
O158        O  0.43734657  0.37009338  0.58991025    -0.95430
O159        O  0.36900388  0.42319565  0.61056860    -0.91180
O160        O  0.35814156  0.49996406  0.61348333    -0.84320
C161        C  0.34727422  0.45992239  0.60551523     1.10820
O162        O  0.47076036  0.42394611  0.73508108    -0.97410
Zr163      Zr  0.43919924  0.45437874  0.69736905     1.88940
O164        O  0.35060036  0.53335291  0.66920981    -0.74060
O165        O  0.38202468  0.35623731  0.64723019    -0.53320
O166        O  0.40236930  0.38426151  0.70900807    -0.98000
O167        O  0.42313819  0.50659306  0.73155206    -0.55220
O168        O  0.35809173  0.47152628  0.69340206    -0.74570
C169        C  0.33412330  0.50280382  0.68299414     0.97770
O170        O  0.38513630  0.58935475  0.61661888    -0.63390
O171        O  0.58036784  0.60286838  0.68015025    -0.58200
O172        O  0.43328944  0.60838588  0.64979748    -0.94880
O173        O  0.50454820  0.60713664  0.66555996    -0.93310
O174        O  0.57547457  0.56197892  0.60555260    -0.93660
O175        O  0.50314708  0.54876022  0.57683751    -0.92450
C176        C  0.46924952  0.62723529  0.65746181     1.16610
H177        H  0.59793795  0.49420370  0.64298084     0.32560
H178        H  0.43569292  0.48146263  0.59727566     0.43410
H179        H  0.44212610  0.55161117  0.69203023     0.36930
H180        H  0.47040120  0.37131242  0.67658706     0.33410
H181        H  0.55350859  0.45627520  0.56175674     0.25200
H182        H  0.37768152  0.33235505  0.63459054     0.31140
H183        H  0.37614992  0.39436042  0.71912403     0.37050
H184        H  0.59774452  0.55412746  0.59255557     0.31510
H185        H  0.59626114  0.60016704  0.69593489     0.30390
H186        H  0.51277923  0.57881676  0.72173292     0.32070
H187        H  0.40539727  0.48869090  0.74327544     0.31030
H188        H  0.47343095  0.56052429  0.58271264     0.35030
H189        H  0.39050694  0.57845877  0.59964049     0.27770
H190        H  0.61140451  0.34184283  0.67895371     0.32000
H191        H  0.44485798  0.41758088  0.74592259     0.34850
H192        H  0.60431628  0.59914818  0.66754306     0.27460
H193        H  0.35200663  0.58855169  0.61889987     0.40330
H194        H  0.43686754  0.39591801  0.57840880     0.30390
H195        H  0.50258081  0.44395142  0.56595994     0.38000
H196        H  0.40091624  0.52925437  0.72532228     0.29850
H197        H  0.39700453  0.34010026  0.66086374     0.29920
H198        H  0.57337327  0.34971397  0.69873988     0.30180
Zr199      Zr  0.42783746  0.02073132  0.66499049     2.17510
O200        O  0.39332690  0.06666479  0.69761658    -0.52170
O201        O  0.38172501  0.04085562  0.63012050    -0.75380
O202        O  0.44341896  0.10134519  0.66013369    -0.82160
O203        O  0.36725782  0.91739349  0.68865668    -0.83910
O204        O  0.50888536  0.10278917  0.63834134    -0.79530
O205        O  0.35630657  0.99289642  0.68168495    -0.91170
O206        O  0.37460323  0.97416084  0.61002747    -0.77130
O207        O  0.46253685  0.01705073  0.62544905    -0.86620
O208        O  0.41395449  0.94725945  0.64813892    -0.86310
O209        O  0.50742316  0.03208186  0.67180557    -0.73070
O210        O  0.46286990  0.96967794  0.69375003    -0.85200
Zr211      Zr  0.56396303  0.90509654  0.64005641     2.26420
Zr212      Zr  0.54092403  0.02901500  0.63187121     2.06270
Zr213      Zr  0.44739915  0.89748228  0.67632967     2.10050
Zr214      Zr  0.44943655  0.94283683  0.60912999     1.78760
O215        O  0.45273550  0.87784012  0.71927726    -0.94010
O216        O  0.44773219  0.98639245  0.57147828    -0.41810
O217        O  0.48391931  0.89170843  0.63675459    -0.78450
O218        O  0.52809314  0.95699619  0.61290000    -0.97130
O219        O  0.57776331  0.97691506  0.65819311    -0.90440
O220        O  0.52803556  0.90586662  0.67982936    -0.93280
C221        C  0.36584008  0.01636072  0.61277713     1.00470
C222        C  0.34175144  0.95399275  0.68872312     1.13400
C223        C  0.47535981  0.12202545  0.64920482     1.04180
O224        O  0.53742019  0.06706894  0.59260426    -0.95430
O225        O  0.60793492  0.01199015  0.60820104    -0.91180
O226        O  0.62199976  0.93580010  0.61118007    -0.84320
C227        C  0.63079045  0.97586475  0.60269038     1.10820
O228        O  0.51619159  0.01503378  0.73487983    -0.97410
Zr229      Zr  0.54375815  0.97739337  0.69759044     1.88940
O230        O  0.63200064  0.89926453  0.66432116    -0.74060
O231        O  0.60175540  0.07590040  0.64720215    -0.53320
O232        O  0.58754325  0.04460517  0.70730329    -0.98000
O233        O  0.55258957  0.92720070  0.73266950    -0.55220
O234        O  0.62237684  0.95046289  0.69546714    -0.74570
C235        C  0.64658957  0.92211552  0.68264455     0.97770
O236        O  0.58287813  0.84804288  0.60862220    -0.63390
O237        O  0.39794210  0.83329860  0.66922841    -0.58200
O238        O  0.55245242  0.82671386  0.65050923    -0.94880
O239        O  0.48249821  0.82552006  0.66829896    -0.93310
O240        O  0.40473715  0.87561956  0.60110825    -0.93660
O241        O  0.47082955  0.89705844  0.57335797    -0.92450
C242        C  0.51847577  0.80670884  0.65972774     1.16610
H243        H  0.38242355  0.93988903  0.64694037     0.32560
H244        H  0.54166092  0.95551685  0.59678876     0.43410
H245        H  0.54076958  0.88169469  0.68966823     0.36930
H246        H  0.51202879  0.06141074  0.67943288     0.33410
H247        H  0.41733043  0.98149336  0.56461280     0.25200
H248        H  0.60452401  0.10054309  0.63509171     0.31140
H249        H  0.61261669  0.03326754  0.71765038     0.37050
H250        H  0.37980750  0.88654797  0.59053942     0.31510
H251        H  0.38247784  0.82833618  0.68500742     0.30390
H252        H  0.44566020  0.84498735  0.71972962     0.32070
H253        H  0.57376701  0.94301352  0.74365459     0.31030
H254        H  0.50370917  0.90122174  0.57130402     0.35030
H255        H  0.55433313  0.83218161  0.60527319     0.27770
H256        H  0.37702716  0.09206759  0.68949087     0.32000
H257        H  0.54282693  0.01908914  0.74548228     0.34850
H258        H  0.37403139  0.84513288  0.65825426     0.27460
H259        H  0.58783880  0.86543950  0.59352556     0.40330
H260        H  0.50522861  0.07585762  0.59052892     0.30390
H261        H  0.44728327  0.01878137  0.57675095     0.38000
H262        H  0.57028956  0.90029679  0.72671350     0.29850
H263        H  0.58920547  0.09132613  0.66197455     0.29920
H264        H  0.41885246  0.08103006  0.70616166     0.30180
Zr265      Zr  0.69109659  0.27699245  0.47067327     2.17510
O266        O  0.64973545  0.31104535  0.43685149    -0.52170
O267        O  0.66928145  0.32869636  0.50381340    -0.75380
O268        O  0.61082967  0.26131935  0.47352568    -0.82160
O269        O  0.79641580  0.34124448  0.45448688    -0.83910
O270        O  0.60439888  0.19213611  0.49165602    -0.79530
O271        O  0.72012663  0.34831387  0.45457405    -0.91170
O272        O  0.72878575  0.33097373  0.52945197    -0.77130
O273        O  0.68681675  0.24134365  0.50958593    -0.86620
O274        O  0.76010371  0.29200521  0.49085700    -0.86310
O275        O  0.68179729  0.19680977  0.46217813    -0.73070
O276        O  0.74761364  0.24313688  0.44408643    -0.85200
Zr277      Zr  0.80245749  0.14123492  0.49891942     2.26420
Zr278      Zr  0.67736820  0.16198288  0.50149648     2.06270
Zr279      Zr  0.81568531  0.25913767  0.46488773     2.10050
Zr280      Zr  0.75672142  0.25502110  0.52943168     1.78760
O281        O  0.84454876  0.24028067  0.42427512    -0.94010
O282        O  0.70411857  0.25887718  0.56381436    -0.41810
O283        O  0.81282672  0.22196786  0.50407130    -0.78450
O284        O  0.74479329  0.17568360  0.52376511    -0.97130
O285        O  0.73503968  0.12645377  0.47738789    -0.90440
O286        O  0.80890455  0.17760559  0.45956241    -0.93280
C287        C  0.69030593  0.34488536  0.52233844     1.00470
C288        C  0.75945682  0.36545036  0.45181963     1.13400
C289        C  0.58809011  0.22788588  0.48167750     1.04180
O290        O  0.63431154  0.16626311  0.53946207    -0.95430
O291        O  0.69244627  0.09374092  0.52460488    -0.91180
O292        O  0.76850803  0.08194891  0.52572986    -0.84320
C293        C  0.72757880  0.07168994  0.53186713     1.10820
O294        O  0.70522016  0.18756369  0.40116156    -0.97410
Zr295      Zr  0.74128717  0.16147665  0.43861893     1.88940
O296        O  0.81436297  0.07398652  0.47386937    -0.74060
O297        O  0.63396923  0.09985691  0.48426133    -0.53320
O298        O  0.67884444  0.11303223  0.42704698    -0.98000
O299        O  0.79339682  0.15874597  0.40393630    -0.55220
O300        O  0.77289506  0.08371780  0.43944810    -0.74570
C301        C  0.79811268  0.05959649  0.45363239     0.97770
O302        O  0.85117154  0.11885808  0.53283497    -0.63390
O303        O  0.88498157  0.30158118  0.45989596    -0.58200
O304        O  0.88049384  0.15906587  0.49051899    -0.94880
O305        O  0.87375607  0.23564267  0.49288307    -0.93310
O306        O  0.82207549  0.29829001  0.54204947    -0.93660
O307        O  0.79432616  0.23007101  0.56663762    -0.92450
C308        C  0.89734244  0.19889954  0.49116643     1.16610
H309        H  0.76625589  0.32390487  0.49312066     0.32560
H310        H  0.74346915  0.16174531  0.53968352     0.43410
H311        H  0.83465575  0.16494514  0.45074640     0.36930
H312        H  0.65429218  0.19226870  0.45312691     0.33410
H313        H  0.71312605  0.28606366  0.57336351     0.25200
H314        H  0.60740562  0.09746890  0.49518561     0.31140
H315        H  0.69246695  0.08929831  0.41614798     0.37050
H316        H  0.80982972  0.32196667  0.55343947     0.31510
H317        H  0.88178975  0.31756428  0.44414392     0.30390
H318        H  0.82959375  0.26279928  0.41347776     0.32070
H319        H  0.78273512  0.13348666  0.39345251     0.31030
H320        H  0.77740870  0.20336495  0.57230435     0.35030
H321        H  0.87528434  0.14165406  0.53386573     0.27770
H322        H  0.62553733  0.33018667  0.44451569     0.32000
H323        H  0.70503695  0.16091890  0.38990074     0.34850
H324        H  0.88304308  0.32613816  0.47243636     0.27460
H325        H  0.83265435  0.12558938  0.54757032     0.40330
H326        H  0.62545129  0.19885869  0.54137431     0.30390
H327        H  0.67458243  0.26769626  0.55670834     0.38000
H328        H  0.82255941  0.14722587  0.41038020     0.29850
H329        H  0.62153723  0.11185107  0.46880204     0.29920
H330        H  0.63384414  0.28547998  0.42893431     0.30180
Zr331      Zr  0.29764102  0.15693513  0.47481956     2.17510
O332        O  0.34234590  0.12243411  0.44179037    -0.52170
O333        O  0.32206402  0.11053694  0.50879152    -0.75380
O334        O  0.37746100  0.17671891  0.47952743    -0.82160
O335        O  0.19371128  0.09272701  0.45489114    -0.83910
O336        O  0.37868104  0.24333812  0.50088537    -0.79530
O337        O  0.26969546  0.08322835  0.45895285    -0.91170
O338        O  0.25940796  0.10412971  0.53200979    -0.77130
O339        O  0.29590905  0.19312407  0.51416376    -0.86620
O340        O  0.22657510  0.14155383  0.49325173    -0.86310
O341        O  0.30537164  0.23741360  0.46714476    -0.73070
O342        O  0.24315343  0.19017523  0.44715161    -0.85200
Zr343      Zr  0.18016029  0.29124549  0.50173757     2.26420
Zr344      Zr  0.30430778  0.27242114  0.50686023     2.06270
Zr345      Zr  0.17339267  0.17346444  0.46613086     2.10050
Zr346      Zr  0.22431368  0.17795746  0.53206259     1.78760
O347        O  0.15382271  0.18006627  0.42320089    -0.94010
O348        O  0.26668916  0.17654929  0.57007121    -0.41810
O349        O  0.16971741  0.21028414  0.50580553    -0.78450
O350        O  0.23543190  0.25764996  0.52774692    -0.97130
O351        O  0.24891723  0.30734015  0.48180138    -0.90440
O352        O  0.17836688  0.25496898  0.46196053    -0.93280
C353        C  0.30049354  0.09469483  0.52702501     1.00470
C354        C  0.23024872  0.06774212  0.45383162     1.13400
C355        C  0.39817557  0.20965524  0.49018068     1.04180
O356        O  0.34042706  0.27430242  0.54665833    -0.95430
O357        O  0.28771259  0.34245597  0.52817393    -0.91180
O358        O  0.21143091  0.35002105  0.53033159    -0.84320
C359        C  0.25180980  0.36278667  0.53587230     1.10820
O360        O  0.28445036  0.24622459  0.40485095    -0.97410
Zr361      Zr  0.24752484  0.27202037  0.44259862     1.88940
O362        O  0.16968734  0.35815386  0.47692034    -0.74060
O363        O  0.34968471  0.33277771  0.48974959    -0.53320
O364        O  0.31114150  0.31997314  0.43267995    -0.98000
O365        O  0.19678868  0.27579058  0.40758795    -0.55220
O366        O  0.21602019  0.34990766  0.44396724    -0.74570
C367        C  0.18895257  0.37348688  0.45783167     0.97770
O368        O  0.12404906  0.31927437  0.53123648    -0.63390
O369        O  0.10976477  0.12270986  0.47063792    -0.58200
O370        O  0.10170198  0.27221600  0.49668040    -0.94880
O371        O  0.10068318  0.20348032  0.47676097    -0.93310
O372        O  0.15982440  0.12995900  0.53980002    -0.93660
O373        O  0.18109067  0.20201942  0.56802056    -0.92450
C374        C  0.08172301  0.23789342  0.48729132     1.16610
H375        H  0.22078357  0.10956430  0.49527402     0.32560
H376        H  0.23512865  0.27145127  0.54385085     0.43410
H377        H  0.15293161  0.26681648  0.45283781     0.36930
H378        H  0.33386588  0.24265882  0.45903505     0.33410
H379        H  0.26186022  0.14581022  0.57681549     0.25200
H380        H  0.37406436  0.33750609  0.50176824     0.31140
H381        H  0.29835864  0.34422903  0.42215692     0.37050
H382        H  0.17108760  0.10691881  0.55150860     0.31510
H383        H  0.10654454  0.10728201  0.45459371     0.30390
H384        H  0.12262402  0.19287045  0.42335439     0.32070
H385        H  0.20877449  0.30038148  0.39730233     0.31030
H386        H  0.16068198  0.22666261  0.56212052     0.35030
H387        H  0.13747497  0.31348356  0.54747331     0.27770
H388        H  0.36676576  0.10489594  0.44995692     0.32000
H389        H  0.28657580  0.27340371  0.39435672     0.34850
H390        H  0.12036329  0.09850264  0.48185725     0.27460
H391        H  0.12343645  0.35287828  0.52963619     0.40330
H392        H  0.34151039  0.24212694  0.55192362     0.30390
H393        H  0.29875694  0.17610928  0.56499696     0.38000
H394        H  0.16783497  0.28869155  0.41387379     0.29850
H395        H  0.36512639  0.31887652  0.47533947     0.29920
H396        H  0.35771670  0.14822473  0.43398653     0.30180
Zr397      Zr  0.29431945  0.77767677  0.41185461     2.17510
O398        O  0.33549720  0.81447645  0.44479346    -0.52170
O399        O  0.32014410  0.81984503  0.37668961    -0.75380
O400        O  0.37444626  0.75799885  0.40936501    -0.82160
O401        O  0.19063873  0.84482296  0.43263704    -0.83910
O402        O  0.38080682  0.68851764  0.39050441    -0.79530
O403        O  0.26579666  0.85283730  0.42586558    -0.91170
O404        O  0.25989422  0.82580993  0.35161967    -0.77130
O405        O  0.29464869  0.74015429  0.37296619    -0.86620
O406        O  0.22328260  0.79374768  0.39338941    -0.86310
O407        O  0.30504166  0.69768889  0.42072120    -0.73070
O408        O  0.24068427  0.74644386  0.44010644    -0.85200
Zr409      Zr  0.18240480  0.64522232  0.38738511     2.26420
Zr410      Zr  0.30696248  0.66125952  0.38135475     2.06270
Zr411      Zr  0.17049054  0.76441667  0.42132111     2.10050
Zr412      Zr  0.22242340  0.75527372  0.35518648     1.78760
O413        O  0.14859389  0.76483424  0.46419610    -0.94010
O414        O  0.26099854  0.74557007  0.31603527    -0.41810
O415        O  0.16825280  0.72567788  0.38219683    -0.78450
O416        O  0.23722907  0.67617955  0.36083897    -0.97130
O417        O  0.25176230  0.62824040  0.40687708    -0.90440
O418        O  0.17929075  0.68321056  0.42656093    -0.92960
C419        C  0.30043645  0.83402146  0.35733763     1.00470
C420        C  0.22676678  0.86921697  0.43228634     1.13400
C421        C  0.39724448  0.72362767  0.40086957     1.04180
O422        O  0.34652494  0.66405604  0.34236281    -0.95430
O423        O  0.29009404  0.59225502  0.35925477    -0.91180
O424        O  0.21386382  0.58469540  0.35974006    -0.84320
C425        C  0.25405491  0.57200427  0.35291004     1.10820
O426        O  0.28469684  0.69178309  0.48285112    -0.97410
Zr427      Zr  0.24821424  0.66469015  0.44572575     1.88940
O428        O  0.17200756  0.57872429  0.41205041    -0.74060
O429        O  0.35224653  0.59742187  0.39650677    -0.53320
O430        O  0.31302273  0.61616593  0.45592428    -0.98000
O431        O  0.19779987  0.66184829  0.48108516    -0.55220
O432        O  0.21791688  0.58718937  0.44471169    -0.74570
C433        C  0.19123667  0.56353804  0.43125373     0.97770
O434        O  0.12889909  0.62649825  0.35511193    -0.63390
O435        O  0.10835557  0.81656835  0.41139064    -0.58200
O436        O  0.10461134  0.65910077  0.39733618    -0.94880
O437        O  0.09837258  0.73008378  0.41488447    -0.93310
O438        O  0.16143983  0.80965338  0.34673843    -0.93660
O439        O  0.17322769  0.73247907  0.32189828    -0.92450
C440        C  0.08214836  0.69302438  0.40633535     1.16610
H441        H  0.21762348  0.82578158  0.39059490     0.32560
H442        H  0.23712385  0.66161625  0.34491449     0.43410
H443        H  0.15458781  0.67169584  0.43619155     0.36930
H444        H  0.33307010  0.69262266  0.42927744     0.33410
H445        H  0.27235353  0.77604158  0.31186505     0.25200
H446        H  0.37877329  0.59527574  0.38545319     0.31140
H447        H  0.30062006  0.59203616  0.46638451     0.37050
H448        H  0.17271263  0.82801506  0.33299896     0.31510
H449        H  0.10169182  0.83368597  0.42670550     0.30390
H450        H  0.11640013  0.77461234  0.46421357     0.32070
H451        H  0.21082857  0.63751432  0.49146055     0.31030
H452        H  0.17241021  0.69879462  0.32273640     0.35030
H453        H  0.11456687  0.65609943  0.35076488     0.27770
H454        H  0.36007922  0.83110921  0.43669928     0.32000
H455        H  0.28758952  0.66508613  0.49370106     0.34850
H456        H  0.12171286  0.83923368  0.40034427     0.27460
H457        H  0.14710352  0.61834033  0.34045463     0.40330
H458        H  0.37488458  0.64629754  0.34485769     0.30390
H459        H  0.28837605  0.72705422  0.31969430     0.38000
H460        H  0.16931999  0.64881466  0.47506843     0.29850
H461        H  0.36450103  0.60819070  0.41228191     0.29920
H462        H  0.35091574  0.78925860  0.45354547     0.30180
Zr463      Zr  0.69143263  0.65718267  0.41049112     2.17510
O464        O  0.64996491  0.62924344  0.44559621    -0.52170
O465        O  0.66401067  0.60659027  0.37909521    -0.75380
O466        O  0.61143538  0.67764595  0.40555763    -0.82160
O467        O  0.79757301  0.58557582  0.42289824    -0.83910
O468        O  0.60783097  0.74815312  0.38886061    -0.79530
O469        O  0.72117617  0.58222505  0.42399938    -0.91170
O470        O  0.70968459  0.61540428  0.34599364    -0.77130
O471        O  0.68761300  0.69781356  0.37296863    -0.86620
O472        O  0.75878186  0.63902537  0.38829108    -0.86310
O473        O  0.68451548  0.73712331  0.42125015    -0.73070
O474        O  0.75056578  0.68417712  0.43660402    -0.85200
Zr475      Zr  0.80640625  0.78760645  0.38494584     2.26420
Zr476      Zr  0.68156575  0.77696791  0.38325767     2.06270
Zr477      Zr  0.81734672  0.66613280  0.41383305     2.10050
Zr478      Zr  0.75540844  0.68037125  0.35125525     1.78760
O479        O  0.85210930  0.67825650  0.45351539    -0.94010
O480        O  0.71006859  0.69364774  0.31490729    -0.41810
O481        O  0.81404954  0.70721189  0.37603579    -0.78450
O482        O  0.74758935  0.76000699  0.35952207    -0.97130
O483        O  0.74034945  0.80532394  0.40783671    -0.90440
O484        O  0.81241798  0.74677927  0.42291682    -0.93280
C485        C  0.67702333  0.59730357  0.35726689     1.00470
C486        C  0.76076554  0.56326359  0.42612320     1.13400
C487        C  0.58961607  0.71226487  0.39687601     1.04180
O488        O  0.64173122  0.78760319  0.34493087    -0.95430
O489        O  0.69935803  0.84792304  0.36372565    -0.91180
O490        O  0.77555958  0.84937482  0.35910903    -0.84320
C491        C  0.73537390  0.86542818  0.35522091     1.10820
O492        O  0.71382114  0.73496948  0.48267340    -0.97410
Zr493      Zr  0.74571615  0.76531880  0.44519446     1.88940
O494        O  0.81710495  0.85282158  0.41122995    -0.74060
O495        O  0.63832402  0.83629376  0.40496972    -0.53320
O496        O  0.68300723  0.81331160  0.45993918    -0.98000
O497        O  0.80020566  0.76479204  0.47853240    -0.55220
O498        O  0.77536039  0.84281068  0.44555928    -0.74570
C499        C  0.80034084  0.86691305  0.43160635     0.97770
O500        O  0.86307422  0.80913641  0.35496188    -0.63390
O501        O  0.88595539  0.61884703  0.41455068    -0.58200
O502        O  0.88332564  0.76638165  0.39284692    -0.94880
O503        O  0.87287809  0.69236759  0.38523371    -0.93310
O504        O  0.81268883  0.62322248  0.33993265    -0.93660
O505        O  0.79931781  0.70144298  0.31557106    -0.92450
C506        C  0.89830542  0.72559415  0.39034649     1.16610
H507        H  0.76221589  0.60704204  0.38422917     0.32560
H508        H  0.74651997  0.77544033  0.34399478     0.43410
H509        H  0.83871878  0.75653821  0.43180753     0.36930
H510        H  0.65676572  0.74245964  0.43032909     0.33410
H511        H  0.71456432  0.66580944  0.30470580     0.25200
H512        H  0.61390080  0.84510864  0.39356683     0.31140
H513        H  0.69692249  0.83576909  0.47108763     0.37050
H514        H  0.79797021  0.60378874  0.32753368     0.31510
H515        H  0.88348464  0.59973470  0.42927186     0.30390
H516        H  0.83538980  0.65819886  0.46465977     0.32070
H517        H  0.78896150  0.78859831  0.49011798     0.31030
H518        H  0.80884156  0.73302128  0.31903247     0.35030
H519        H  0.85297331  0.79530663  0.33938667     0.27770
H520        H  0.62581961  0.61033743  0.43857170     0.32000
H521        H  0.71265197  0.76056971  0.49461694     0.34850
H522        H  0.88285680  0.59733150  0.40063024     0.27460
H523        H  0.85935876  0.84242454  0.35267474     0.40330
H524        H  0.66281623  0.77571192  0.33220550     0.30390
H525        H  0.67839393  0.69218522  0.32062771     0.38000
H526        H  0.82820599  0.77760484  0.47177992     0.29850
H527        H  0.62275056  0.82043680  0.41837117     0.29920
H528        H  0.63395249  0.65647280  0.45246328     0.30180
Zr529      Zr  0.79159849  0.27134699  0.90457698     2.17510
O530        O  0.84036076  0.31054081  0.93338380    -0.52170
O531        O  0.79837956  0.32211884  0.86932994    -0.75380
O532        O  0.87185641  0.25362964  0.89681176    -0.82160
O533        O  0.69042161  0.33554559  0.93168857    -0.83910
O534        O  0.87704456  0.18337613  0.87905999    -0.79530
O535        O  0.76454526  0.34394449  0.92252674    -0.91170
O536        O  0.73437802  0.31786213  0.84711315    -0.77130
O537        O  0.78662259  0.23223241  0.86642110    -0.86620
O538        O  0.71655528  0.28377510  0.89070402    -0.86310
O539        O  0.80577266  0.19193144  0.91398287    -0.73070
O540        O  0.74513487  0.23891465  0.93631316    -0.85200
Zr541      Zr  0.67819454  0.13193952  0.88783267     2.26420
Zr542      Zr  0.80195408  0.15373941  0.87527933     2.06270
Zr543      Zr  0.67074085  0.25448477  0.92217091     2.10050
Zr544      Zr  0.71062275  0.24270253  0.85300715     1.78760
O545        O  0.64610789  0.25327327  0.96444029    -0.94010
O546        O  0.75801980  0.22894814  0.81703072    -0.41810
O547        O  0.66389370  0.21350048  0.88366397    -0.78450
O548        O  0.72778099  0.16440734  0.85866801    -0.97130
O549        O  0.75203318  0.11887073  0.90350672    -0.90440
O550        O  0.68105669  0.17246707  0.92717446    -0.93280
C551        C  0.77197480  0.33538037  0.85198918     1.00470
C552        C  0.72636468  0.36002333  0.93046815     1.13400
C553        C  0.89467971  0.21961705  0.88766685     1.04180
O554        O  0.83635172  0.15242702  0.83483175    -0.95430
O555        O  0.78375878  0.08519551  0.85331029    -0.91180
O556        O  0.70860665  0.07370661  0.85844760    -0.84320
C557        C  0.74756065  0.06359417  0.84893439     1.10820
O558        O  0.79503873  0.18297926  0.97805414    -0.97410
Zr559      Zr  0.75450569  0.15700609  0.94200077     1.88940
O560        O  0.67544817  0.06687844  0.91444501    -0.74060
O561        O  0.84965165  0.09250193  0.89126634    -0.53320
O562        O  0.82317366  0.11215746  0.94922720    -0.98000
O563        O  0.71032319  0.15551371  0.97970232    -0.55220
O564        O  0.72767850  0.07784526  0.94402357    -0.74570
C565        C  0.69916195  0.05296231  0.93247434     0.97770
O566        O  0.62187327  0.10699749  0.85843221    -0.63390
O567        O  0.60162882  0.29976341  0.91784750    -0.58200
O568        O  0.59645028  0.13973594  0.89126692    -0.94880
O569        O  0.61762415  0.20187425  0.90751988    -0.93310
O570        O  0.64372666  0.28683410  0.84123218    -0.93660
O571        O  0.65958997  0.21563828  0.82141792    -0.92450
C572        C  0.58550361  0.17792474  0.90041534     1.16610
H573        H  0.70894106  0.31564353  0.88844769     0.32560
H574        H  0.72557132  0.15000189  0.84279659     0.43410
H575        H  0.65920853  0.16037142  0.93850040     0.36930
H576        H  0.83554991  0.18825304  0.92087920     0.33410
H577        H  0.73888603  0.23627054  0.80279617     0.25200
H578        H  0.87197829  0.08588838  0.87812905     0.31140
H579        H  0.81367858  0.08687906  0.95981589     0.37050
H580        H  0.65368532  0.30708047  0.82797596     0.31510
H581        H  0.59949087  0.31840659  0.93299004     0.30390
H582        H  0.66458116  0.27654558  0.97268687     0.32070
H583        H  0.68621238  0.13322563  0.97682256     0.31030
H584        H  0.67173213  0.18531817  0.81628523     0.35030
H585        H  0.63425936  0.11488381  0.84220241     0.27770
H586        H  0.86209085  0.32737039  0.92325527     0.32000
H587        H  0.79661456  0.15656701  0.98917159     0.34850
H588        H  0.60846594  0.32182771  0.90483331     0.27460
H589        H  0.62265811  0.07324549  0.85876948     0.40330
H590        H  0.83862218  0.18491195  0.83033520     0.30390
H591        H  0.78102227  0.25297740  0.81744983     0.38000
H592        H  0.69441470  0.18546985  0.98058626     0.29850
H593        H  0.86736689  0.10679479  0.90447608     0.29920
H594        H  0.85858934  0.28615156  0.94122948     0.30180
Zr595      Zr  0.19229459  0.16606078  0.91180966     2.17510
O596        O  0.14936030  0.13647726  0.94599397    -0.52170
O597        O  0.17175048  0.11597108  0.87858086    -0.75380
O598        O  0.11167471  0.18260776  0.90579995    -0.82160
O599        O  0.29638227  0.10089895  0.93249694    -0.83910
O600        O  0.10577402  0.24981008  0.88543945    -0.79530
O601        O  0.22083287  0.09289944  0.92718752    -0.91170
O602        O  0.23389516  0.10852394  0.85475453    -0.77130
O603        O  0.19216400  0.19999075  0.87241947    -0.86620
O604        O  0.26368255  0.14873318  0.89332985    -0.86310
O605        O  0.18107601  0.24664374  0.91930320    -0.73070
O606        O  0.24641518  0.19904769  0.93921085    -0.85200
Zr607      Zr  0.30590578  0.29631967  0.88513599     2.26420
Zr608      Zr  0.18030371  0.27964913  0.87948780     2.06270
Zr609      Zr  0.31667362  0.18018549  0.92022672     2.10050
Zr610      Zr  0.26412739  0.18308633  0.85436961     1.78760
O611        O  0.33909110  0.18536574  0.96283356    -0.94010
O612        O  0.21581604  0.18118582  0.81844488    -0.41810
O613        O  0.31896200  0.21523201  0.88043941    -0.78450
O614        O  0.25060436  0.26274715  0.85932347    -0.97130
O615        O  0.23580490  0.31414654  0.90444194    -0.90440
O616        O  0.30869378  0.26185181  0.92481461    -0.93280
C617        C  0.19359143  0.09885950  0.86030658     1.00470
C618        C  0.26007994  0.07684629  0.93297421     1.13400
C619        C  0.08883500  0.21490088  0.89556135     1.04180
O620        O  0.14016779  0.27972303  0.84079544    -0.95430
O621        O  0.19902010  0.34587322  0.85582178    -0.91180
O622        O  0.27534119  0.35319640  0.85608032    -0.84320
C623        C  0.23534728  0.36505509  0.84890367     1.10820
O624        O  0.20509086  0.25391277  0.98158372    -0.97410
Zr625      Zr  0.23861250  0.28091829  0.94375587     1.88940
O626        O  0.31366699  0.36505903  0.90968251    -0.74060
O627        O  0.13563467  0.34241559  0.89716186    -0.53320
O628        O  0.17303677  0.32816106  0.95502684    -0.98000
O629        O  0.29015017  0.28885529  0.97818801    -0.55220
O630        O  0.26530090  0.35923351  0.94165193    -0.74570
C631        C  0.29233534  0.38197191  0.92817318     0.97770
O632        O  0.35270983  0.32597945  0.85245510    -0.63390
O633        O  0.37873540  0.12621472  0.91208760    -0.58200
O634        O  0.38554794  0.27715442  0.89071686    -0.94880
O635        O  0.38938968  0.20962179  0.91100532    -0.93310
O636        O  0.32875465  0.13412213  0.84371951    -0.93660
O637        O  0.30583053  0.20521936  0.81803015    -0.92450
C638        C  0.40707240  0.24354730  0.90038432     1.16610
H639        H  0.27039354  0.11656963  0.89153410     0.32560
H640        H  0.25082473  0.27574222  0.84316682     0.43410
H641        H  0.33369581  0.27384014  0.93401797     0.36930
H642        H  0.15238804  0.25211576  0.92739856     0.33410
H643        H  0.22428465  0.15232276  0.80989044     0.25200
H644        H  0.11178327  0.34866813  0.88497126     0.31140
H645        H  0.18502806  0.35235650  0.96580250     0.37050
H646        H  0.31695369  0.11190142  0.83170971     0.31510
H647        H  0.38441667  0.11074779  0.92778913     0.30390
H648        H  0.37005298  0.19745498  0.96230354     0.32070
H649        H  0.27562567  0.31217818  0.98898483     0.31030
H650        H  0.29050649  0.23330765  0.81213418     0.35030
H651        H  0.37932967  0.33969876  0.86027155     0.27770
H652        H  0.12593944  0.11726430  0.93850002     0.32000
H653        H  0.20080784  0.28107117  0.99230687     0.34850
H654        H  0.36585349  0.10249466  0.90131426     0.27460
H655        H  0.36435691  0.29870508  0.84345701     0.40330
H656        H  0.13687534  0.24707360  0.83649624     0.30390
H657        H  0.18501100  0.17604357  0.82478932     0.38000
H658        H  0.31702336  0.30429737  0.97171356     0.29850
H659        H  0.11945431  0.32901100  0.91113475     0.29920
H660        H  0.13255779  0.16325698  0.95283026     0.30180
Zr661      Zr  0.18582911  0.79607220  0.97677031     2.17510
O662        O  0.13911203  0.83005759  0.94503428    -0.52170
O663        O  0.17766185  0.85787599  0.00709773    -0.75380
O664        O  0.10524923  0.77785748  0.98366966    -0.82160
O665        O  0.29065986  0.85404041  0.95287275    -0.83910
O666        O  0.10535263  0.71112369  0.00436769    -0.79530
O667        O  0.21512556  0.86588650  0.95822942    -0.91170
O668        O  0.23497205  0.84954579  0.03398800    -0.77130
O669        O  0.18982077  0.76140236  0.01599505    -0.86620
O670        O  0.25973460  0.80756598  0.99229447    -0.86310
O671        O  0.17509207  0.71567081  0.96913144    -0.73070
O672        O  0.23586191  0.75965435  0.94694145    -0.85200
Zr673      Zr  0.30142028  0.65747508  0.99829671     2.26420
Zr674      Zr  0.17931947  0.68193894  0.00856557     2.06270
Zr675      Zr  0.30858455  0.77328375  0.96306373     2.10050
Zr676      Zr  0.26410830  0.77327757  0.03108346     1.78760
O677        O  0.32249876  0.76656129  0.91934637    -0.94010
O678        O  0.21947798  0.77385265  0.06858777    -0.41810
O679        O  0.31466106  0.73804341  0.00256352    -0.78450
O680        O  0.25095612  0.69429125  0.02667861    -0.97130
O681        O  0.22977710  0.64339313  0.98122745    -0.90440
O682        O  0.30007933  0.69218213  0.95864430    -0.93280
C683        C  0.20246056  0.87256052  0.02465188     1.00470
C684        C  0.25478977  0.87986319  0.95254024     1.13400
C685        C  0.08527141  0.74426586  0.99399266     1.04180
O686        O  0.14027252  0.68440259  0.04776517    -0.95430
O687        O  0.19713511  0.61673825  0.03241573    -0.91180
O688        O  0.27311468  0.60504546  0.03034723    -0.84320
C689        C  0.23346783  0.59647235  0.03895303     1.10820
O690        O  0.18637085  0.70401952  0.90639269    -0.97410
Zr691      Zr  0.22800506  0.67781534  0.94211747     1.88940
O692        O  0.30554074  0.58964870  0.97262574    -0.74060
O693        O  0.13479832  0.61933476  0.99274662    -0.53320
O694        O  0.16181748  0.63166894  0.93479764    -0.98000
O695        O  0.27403457  0.67305896  0.90500207    -0.55220
O696        O  0.25710060  0.59881094  0.94099595    -0.74570
C697        C  0.28454694  0.57454351  0.95389976     0.97770
O698        O  0.36249375  0.62380656  0.02226121    -0.63390
O699        O  0.37410084  0.82170798  0.96733264    -0.58200
O700        O  0.37931801  0.67559253  0.99116407    -0.94880
O701        O  0.38179483  0.74096389  0.96906951    -0.93310
O702        O  0.32969314  0.81961282  0.03936914    -0.93660
O703        O  0.31214616  0.74823651  0.06463570    -0.92450
C704        C  0.40002660  0.70725496  0.98005432     1.16610
H705        H  0.26718589  0.83923526  0.99415061     0.32560
H706        H  0.25271529  0.68191230  0.04293765     0.43410
H707        H  0.32395194  0.67908487  0.94851354     0.36930
H708        H  0.14572008  0.71097031  0.96205948     0.33410
H709        H  0.23242856  0.79845841  0.07872698     0.25200
H710        H  0.11264494  0.61325368  0.00584960     0.31140
H711        H  0.17228729  0.60716992  0.92340650     0.37050
H712        H  0.32008993  0.84045507  0.05285495     0.31510
H713        H  0.37739715  0.83710150  0.95144150     0.30390
H714        H  0.35567017  0.76884462  0.91764937     0.32070
H715        H  0.26015484  0.64886517  0.89495901     0.31030
H716        H  0.29618738  0.72275069  0.07236400     0.35030
H717        H  0.35523607  0.63182186  0.03947744     0.27770
H718        H  0.11334361  0.84511132  0.95367867     0.32000
H719        H  0.18268203  0.67691218  0.89569994     0.34850
H720        H  0.36465537  0.84618404  0.97899173     0.27460
H721        H  0.35859786  0.59040817  0.02104254     0.40330
H722        H  0.16287790  0.69600391  0.05942000     0.30390
H723        H  0.18934758  0.78593030  0.06385752     0.38000
H724        H  0.30341437  0.65942130  0.90987797     0.29850
H725        H  0.11651800  0.63268534  0.97942234     0.29920
H726        H  0.12597717  0.80387025  0.93622541     0.30180
Zr727      Zr  0.79965202  0.64194677  0.98051775     2.17510
O728        O  0.84583311  0.60785722  0.94793612    -0.52170
O729        O  0.80833775  0.57954462  0.00971665    -0.75380
O730        O  0.88028897  0.66021228  0.98513401    -0.82160
O731        O  0.69348347  0.58019321  0.96165462    -0.83910
O732        O  0.88358267  0.73134328  0.00207614    -0.79530
O733        O  0.76990797  0.57234319  0.96123007    -0.91170
O734        O  0.76334061  0.59482440  0.04248369    -0.77130
O735        O  0.80215883  0.68117320  0.01897266    -0.86620
O736        O  0.72972786  0.63045918  0.00074552    -0.86310
O737        O  0.80812023  0.72153229  0.97066610    -0.73070
O738        O  0.74398854  0.67440221  0.95324966    -0.85200
Zr739      Zr  0.68523171  0.78055103  0.00568525     2.26420
Zr740      Zr  0.80990175  0.75996150  0.00935136     2.06270
Zr741      Zr  0.67517988  0.66043598  0.97394458     2.10050
Zr742      Zr  0.73147091  0.66984398  0.03880068     1.78760
O743        O  0.64963470  0.66081672  0.93177662    -0.94010
O744        O  0.78066429  0.67267290  0.07433107    -0.41810
O745        O  0.67504097  0.70040154  0.01265089    -0.78450
O746        O  0.74199389  0.74845141  0.03155852    -0.97130
O747        O  0.75354071  0.79385707  0.98458782    -0.90440
O748        O  0.68142797  0.74093063  0.96702133    -0.93280
C749        C  0.78944560  0.56840249  0.02999975     1.00470
C750        C  0.73009823  0.55639626  0.95778243     1.13400
C751        C  0.90161048  0.69538391  0.99294964     1.04180
O752        O  0.85391124  0.76419486  0.04671722    -0.95430
O753        O  0.79360733  0.82866631  0.03166200    -0.91180
O754        O  0.71741394  0.83955195  0.03298303    -0.84320
C755        C  0.75803869  0.84996006  0.03901909     1.10820
O756        O  0.78043381  0.72420698  0.90817095    -0.97410
Zr757      Zr  0.74966659  0.75570873  0.94631902     1.88940
O758        O  0.67825946  0.84825936  0.98061844    -0.74060
O759        O  0.85041767  0.82079887  0.98938194    -0.53320
O760        O  0.81485729  0.79865987  0.93318254    -0.98000
O761        O  0.69527722  0.76127501  0.91299698    -0.55220
O762        O  0.72322364  0.83591323  0.94750156    -0.74570
C763        C  0.69785879  0.86195594  0.96117115     0.97770
O764        O  0.63011805  0.80393481  0.03703504    -0.63390
O765        O  0.61521832  0.60966405  0.98619848    -0.58200
O766        O  0.60663567  0.76687985  0.99734693    -0.94880
O767        O  0.60310441  0.69396738  0.98238922    -0.93310
O768        O  0.66574659  0.62540978  0.04939203    -0.93660
O769        O  0.69121394  0.69995335  0.07469817    -0.92450
C770        C  0.58561249  0.73171411  0.98980807     1.16610
H771        H  0.72313256  0.59872989  0.00312651     0.32560
H772        H  0.74287276  0.76349616  0.04733131     0.43410
H773        H  0.65598293  0.75222140  0.95770911     0.36930
H774        H  0.83625832  0.72540393  0.96196888     0.33410
H775        H  0.77019218  0.64789684  0.08498946     0.25200
H776        H  0.87428964  0.82925763  0.00109043     0.31140
H777        H  0.80227713  0.82302221  0.92265965     0.37050
H778        H  0.67020191  0.61655435  0.06662056     0.31510
H779        H  0.60653712  0.59324736  0.97109521     0.30390
H780        H  0.62023012  0.67749405  0.93231916     0.32070
H781        H  0.70919496  0.78188296  0.90103624     0.31030
H782        H  0.70774877  0.72727383  0.08006699     0.35030
H783        H  0.61835961  0.77497244  0.04337549     0.27770
H784        H  0.86955720  0.58960815  0.95625851     0.32000
H785        H  0.78453415  0.75035815  0.89713966     0.34850
H786        H  0.63020532  0.58623113  0.99642796     0.27460
H787        H  0.64720210  0.81634009  0.05100329     0.40330
H788        H  0.85597910  0.73239047  0.05256332     0.30390
H789        H  0.81057739  0.66179304  0.06829826     0.38000
H790        H  0.66934007  0.77942661  0.91955085     0.29850
H791        H  0.86691657  0.80581158  0.97563090     0.29920
H792        H  0.86193100  0.63354279  0.94048180     0.30180
Zr793      Zr  0.54698784  0.51482167  0.22283177     2.17510
O794        O  0.58870443  0.56022551  0.19368987    -0.52170
O795        O  0.59050337  0.52996237  0.25948183    -0.75380
O796        O  0.53159948  0.59624996  0.22905122    -0.82160
O797        O  0.60805188  0.40796086  0.19894763    -0.83910
O798        O  0.46604595  0.60319583  0.25067883    -0.79530
O799        O  0.61804281  0.48324079  0.20626662    -0.91170
O800        O  0.59416096  0.46414161  0.28029654    -0.77130
O801        O  0.50910417  0.51243928  0.26129473    -0.86620
O802        O  0.55832525  0.44026050  0.23857756    -0.86310
O803        O  0.46890298  0.53144658  0.21356840    -0.73070
O804        O  0.51430510  0.46602618  0.19221959    -0.85200
Zr805      Zr  0.40863409  0.40511108  0.24122252     2.26420
Zr806      Zr  0.43193339  0.52961208  0.25254688     2.06270
Zr807      Zr  0.52722458  0.39218416  0.20848757     2.10050
Zr808      Zr  0.51937719  0.43696704  0.27647627     1.78760
O809        O  0.52953462  0.37212274  0.16529395    -0.94010
O810        O  0.51723698  0.47968336  0.31491407    -0.41810
O811        O  0.48765162  0.38780780  0.24697313    -0.78450
O812        O  0.44176077  0.45574113  0.27025601    -0.97130
O813        O  0.39732507  0.47874225  0.22462384    -0.90440
O814        O  0.44726960  0.40495413  0.20235637    -0.93280
C815        C  0.60442982  0.50545426  0.27734112     1.00470
C816        C  0.63346249  0.44336287  0.20017413     1.13400
C817        C  0.50080381  0.61978772  0.24038667     1.04180
O818        O  0.42884011  0.56420182  0.29313642    -0.95430
O819        O  0.36131558  0.51408770  0.27235098    -0.91180
O820        O  0.35070307  0.43759523  0.26987452    -0.84320
C821        C  0.33982976  0.47810668  0.27767006     1.10820
O822        O  0.46313454  0.51264533  0.14899894    -0.97410
Zr823      Zr  0.43413849  0.47848212  0.18615697     1.88940
O824        O  0.34118919  0.40586485  0.21612298    -0.74060
O825        O  0.37515747  0.58124646  0.23551593    -0.53320
O826        O  0.39429898  0.54944114  0.17642579    -0.98000
O827        O  0.42615487  0.42979261  0.15007175    -0.55220
O828        O  0.35431143  0.45804238  0.18682174    -0.74570
C829        C  0.32806753  0.43119463  0.19845541     0.97770
O830        O  0.38434341  0.34550926  0.26900054    -0.63390
O831        O  0.57556955  0.32672560  0.21829182    -0.58200
O832        O  0.42391168  0.32510487  0.23185389    -0.94880
O833        O  0.49275585  0.32000072  0.21291180    -0.93310
O834        O  0.56359804  0.36789821  0.28445078    -0.93660
O835        O  0.49210209  0.39063093  0.30993824    -0.92450
C836        C  0.45745474  0.30281296  0.22225353     1.16610
H837        H  0.58970370  0.43201958  0.24094724     0.32560
H838        H  0.42682242  0.45474920  0.28598802     0.43410
H839        H  0.43515661  0.38174517  0.19172328     0.36930
H840        H  0.46576673  0.56136798  0.20648843     0.33410
H841        H  0.54467681  0.46947084  0.32373200     0.25200
H842        H  0.36945121  0.60439419  0.24851992     0.31140
H843        H  0.36881776  0.54022954  0.16594858     0.37050
H844        H  0.58524128  0.37680073  0.29729989     0.31510
H845        H  0.59291060  0.31969259  0.20317833     0.30390
H846        H  0.53304247  0.33845443  0.16495855     0.32070
H847        H  0.40208720  0.40813729  0.15410773     0.31030
H848        H  0.46104024  0.40203734  0.31344839     0.35030
H849        H  0.41057440  0.34023675  0.27985318     0.27770
H850        H  0.60600425  0.58205684  0.20369350     0.32000
H851        H  0.43720026  0.51482606  0.13768806     0.34850
H852        H  0.59809943  0.33858728  0.22993473     0.27460
H853        H  0.36069602  0.35861786  0.27993922     0.40330
H854        H  0.46066227  0.56484861  0.29854103     0.30390
H855        H  0.52330068  0.51161170  0.31045269     0.38000
H856        H  0.45417703  0.41089578  0.14932391     0.29850
H857        H  0.39101365  0.59791023  0.22251166     0.29920
H858        H  0.56556150  0.57912881  0.18530519     0.30180
Zr859      Zr  0.44546539  0.91947481  0.22472899     2.17510
O860        O  0.40871381  0.87739044  0.19204903    -0.52170
O861        O  0.39853021  0.89860806  0.25912815    -0.75380
O862        O  0.46265951  0.83815188  0.22861341    -0.82160
O863        O  0.38003524  0.02747333  0.20870745    -0.83910
O864        O  0.53170363  0.83120840  0.24656476    -0.79530
O865        O  0.37329990  0.95073416  0.21022270    -0.91170
O866        O  0.39946173  0.95755034  0.28621963    -0.77130
O867        O  0.48493989  0.91728855  0.26252970    -0.86620
O868        O  0.43107154  0.99074986  0.24456748    -0.86310
O869        O  0.52384977  0.90724439  0.21390269    -0.73070
O870        O  0.47496280  0.97462650  0.19692707    -0.85200
Zr871      Zr  0.58159933  0.03251643  0.24648909     2.26420
Zr872      Zr  0.56263044  0.90571176  0.25223622     2.06270
Zr873      Zr  0.46061249  0.04525336  0.21751829     2.10050
Zr874      Zr  0.47209994  0.98935125  0.28182334     1.78760
O875        O  0.47389111  0.07876134  0.17769793    -0.94010
O876        O  0.47835257  0.94063618  0.31747651    -0.41810
O877        O  0.50213642  0.04329685  0.25519889    -0.78450
O878        O  0.55026610  0.97682685  0.27332772    -0.97130
O879        O  0.59366856  0.96134127  0.22629368    -0.90440
O880        O  0.54034585  0.03615606  0.20843164    -0.93280
C881        C  0.38506156  0.91942427  0.27864528     1.00470
C882        C  0.35642404  0.99094390  0.20664808     1.13400
C883        C  0.49590719  0.81472474  0.23731834     1.04180
O884        O  0.56750001  0.86439217  0.29049523    -0.95430
O885        O  0.63129531  0.92288627  0.27375540    -0.91180
O886        O  0.63962932  0.99988865  0.27414300    -0.84320
C887        C  0.65119900  0.95914250  0.28068538     1.10820
O888        O  0.51891765  0.94058783  0.15077126    -0.97410
Zr889      Zr  0.55493626  0.96509407  0.18856077     1.88940
O890        O  0.64825881  0.03365214  0.21989863    -0.74060
O891        O  0.62216125  0.86069972  0.23207778    -0.53320
O892        O  0.59166137  0.89568020  0.17275724    -0.98000
O893        O  0.56719731  0.01973903  0.15595302    -0.55220
O894        O  0.63583733  0.98059430  0.19024987    -0.74570
C895        C  0.66174895  0.00749482  0.20220287     0.97770
O896        O  0.60842528  0.08908712  0.27602597    -0.63390
O897        O  0.41621170  0.11609570  0.21618197    -0.58200
O898        O  0.56047769  0.11132908  0.23702087    -0.94880
O899        O  0.48948105  0.09807045  0.24707137    -0.93310
O900        O  0.42619500  0.05621549  0.29301922    -0.93660
O901        O  0.49801273  0.03000133  0.31797068    -0.92450
C902        C  0.51983527  0.12546384  0.24061980     1.16610
H903        H  0.39955978  0.99701324  0.24812567     0.32560
H904        H  0.56500689  0.97665503  0.28903404     0.43410
H905        H  0.55089981  0.06121528  0.19872639     0.36930
H906        H  0.52769794  0.87839432  0.20542658     0.33410
H907        H  0.45271235  0.95022573  0.32813992     0.25200
H908        H  0.62906393  0.83565987  0.24355506     0.31140
H909        H  0.61604931  0.90636855  0.16193309     0.37050
H910        H  0.40371311  0.04493406  0.30482836     0.31510
H911        H  0.40061606  0.11573052  0.20024934     0.30390
H912        H  0.45118003  0.06465742  0.16693860     0.32070
H913        H  0.58567284  0.00285493  0.14361091     0.31030
H914        H  0.52650148  0.04418010  0.31278240     0.35030
H915        H  0.58160029  0.10795579  0.28067029     0.27770
H916        H  0.39376882  0.85158137  0.20007482     0.32000
H917        H  0.54357978  0.93386211  0.13893162     0.34850
H918        H  0.39191412  0.11238008  0.22843890     0.27460
H919        H  0.61542525  0.07246474  0.29123033     0.40330
H920        H  0.53576941  0.85915836  0.29528928     0.30390
H921        H  0.47027801  0.90984985  0.31155934     0.38000
H922        H  0.58822515  0.04236405  0.16274526     0.29850
H923        H  0.60722664  0.84561966  0.21811165     0.29920
H924        H  0.43371196  0.86325439  0.18239001     0.30180
Zr925      Zr  0.91640024  0.39903067  0.13650934     2.17510
O926        O  0.87473174  0.34045121  0.11467128    -0.52170
O927        O  0.84516675  0.40490872  0.16024305    -0.75380
O928        O  0.93662939  0.32153291  0.14848132    -0.82160
O929        O  0.88233712  0.49008516  0.09292098    -0.83910
O930        O  0.99567966  0.32467833  0.17477053    -0.79530
O931        O  0.87321604  0.41449387  0.09988169    -0.91170
O932        O  0.85543350  0.45586502  0.19085839    -0.77130
O933        O  0.95135650  0.40607530  0.17545611    -0.86620
O934        O  0.90061035  0.47563688  0.14929374    -0.86310
O935        O  0.99647825  0.38433847  0.13008196    -0.73070
O936        O  0.95101722  0.44686349  0.10669216    -0.85200
Zr937      Zr  0.04891806  0.51793683  0.15278403     2.26420
Zr938      Zr  0.03152060  0.39572342  0.16922372     2.06270
Zr939      Zr  0.93624053  0.52292932  0.12030502     2.10050
Zr940      Zr  0.93414528  0.48168166  0.18854660     1.78760
O941        O  0.94012817  0.56044542  0.08091449    -0.94010
O942        O  0.93290412  0.43430139  0.22486384    -0.41810
O943        O  0.96939946  0.53104287  0.15962253    -0.78450
O944        O  0.01529459  0.47116598  0.18363255    -0.97130
O945        O  0.06402571  0.44241628  0.13916746    -0.90440
O946        O  0.01489573  0.51016237  0.11372258    -0.93280
C947        C  0.83011157  0.42867366  0.17858339     1.00470
C948        C  0.86529386  0.45123562  0.08811489     1.13400
C949        C  0.96566675  0.30333086  0.16289446     1.04180
O950        O  0.04030777  0.38441984  0.21291858    -0.95430
O951        O  0.11065685  0.41273542  0.17774094    -0.91180
O952        O  0.11873291  0.48770171  0.17021947    -0.84320
C953        C  0.13477216  0.44872077  0.17665358     1.10820
O954        O  0.00275328  0.38111980  0.06927717    -0.97410
Zr955      Zr  0.02978735  0.43359010  0.10056431     1.88940
O956        O  0.10846537  0.52690247  0.12195176    -0.74060
O957        O  0.08263614  0.33264629  0.15786029    -0.53320
O958        O  0.08345124  0.36980460  0.09704898    -0.98000
O959        O  0.02367325  0.46669508  0.05998246    -0.55220
O960        O  0.10089911  0.47106403  0.09348104    -0.74570
C961        C  0.12226275  0.50453645  0.10281659     0.97770
O962        O  0.07749587  0.56940397  0.18415678    -0.63390
O963        O  0.86845135  0.56747613  0.13102040    -0.58200
O964        O  0.02984916  0.59772380  0.14517209    -0.94880
O965        O  0.96207831  0.59954635  0.12566856    -0.93310
O966        O  0.88970477  0.55091297  0.19678246    -0.93660
O967        O  0.95667597  0.52678814  0.22393038    -0.92450
C968        C  0.99601824  0.61871302  0.13545367     1.16610
H969        H  0.86884703  0.48367082  0.14907958     0.32560
H970        H  0.03033883  0.47611752  0.19904281     0.43410
H971        H  0.02650584  0.53220123  0.10237603     0.36930
H972        H  0.00167691  0.35332290  0.12444939     0.33410
H973        H  0.91083389  0.44974965  0.23594660     0.25200
H974        H  0.08424033  0.31296649  0.17242435     0.31140
H975        H  0.09943428  0.37448440  0.08138856     0.37050
H976        H  0.86670351  0.54194915  0.20890937     0.31510
H977        H  0.87028410  0.59549129  0.12116216     0.30390
H978        H  0.91178777  0.57881905  0.07988394     0.32070
H979        H  0.05278964  0.45902586  0.05182491     0.31030
H980        H  0.98314333  0.51036827  0.23083290     0.35030
H981        H  0.05003956  0.58366621  0.19151529     0.27770
H982        H  0.86110119  0.32102757  0.12727897     0.32000
H983        H  0.02835025  0.37577868  0.05784364     0.34850
H984        H  0.84313493  0.55059971  0.12372774     0.27460
H985        H  0.08936897  0.54968866  0.19731554     0.40330
H986        H  0.01096381  0.37244463  0.21838014     0.30390
H987        H  0.91778626  0.40593613  0.21976773     0.38000
H988        H  0.02432800  0.50013607  0.06254750     0.29850
H989        H  0.06638357  0.31446410  0.14548943     0.29920
H990        H  0.89777134  0.32079613  0.10634711     0.30180
Zr991      Zr  0.07698025  0.02823477  0.14335677     2.17510
O992        O  0.12994136  0.08392298  0.12797218    -0.52170
O993        O  0.14617073  0.01927016  0.16802997    -0.75380
O994        O  0.05448706  0.10619939  0.15318508    -0.82160
O995        O  0.11335805  0.93477249  0.10048958    -0.83910
O996        O  0.01208394  0.09539289  0.18632869    -0.79530
O997        O  0.11422174  0.01199965  0.10448189    -0.91170
O998        O  0.13277325  0.96773631  0.19752347    -0.77130
O999        O  0.03948783  0.02193062  0.18185087    -0.86620
O1000       O  0.08875690  0.95094150  0.15521786    -0.86310
O1001       O  0.99746612  0.04740625  0.13655323    -0.73070
O1002       O  0.04203795  0.98246730  0.11242568    -0.85200
Zr1003     Zr  0.93831404  0.91607770  0.15628608     2.26420
Zr1004     Zr  0.96014591  0.03722607  0.17535802     2.06270
Zr1005     Zr  0.05280565  0.90577749  0.12503390     2.10050
Zr1006     Zr  0.05272877  0.94582301  0.19399980     1.78760
O1007       O  0.04908898  0.87258588  0.08418064    -0.94010
O1008       O  0.05568918  0.99293486  0.23090827    -0.41810
O1009       O  0.01686142  0.89871132  0.16379963    -0.78450
O1010       O  0.97240440  0.96073537  0.18828180    -0.97130
O1011       O  0.92734504  0.99257000  0.14406435    -0.90440
O1012       O  0.97515234  0.92277116  0.11784502    -0.93280
C1013       C  0.15958699  0.99412789  0.18586459     1.00470
C1014       C  0.12656456  0.97429884  0.09420634     1.13400
C1015       C  0.02876184  0.12131334  0.17037430     1.04180
O1016       O  0.94336557  0.05453983  0.21801886    -0.95430
O1017       O  0.88094081  0.02139114  0.18496330    -0.91180
O1018       O  0.86873324  0.94792835  0.17399032    -0.84320
C1019       C  0.85515827  0.98671426  0.18272565     1.10820
O1020       O  0.99850257  0.04797515  0.07513820    -0.97410
Zr1021     Zr  0.96422196  0.00006497  0.10597341     1.88940
O1022       O  0.88020760  0.91033956  0.12449985    -0.74060
O1023       O  0.91682798  0.10505156  0.16357558    -0.53320
O1024       O  0.91667247  0.06811885  0.10126519    -0.98000
O1025       O  0.96585219  0.96526831  0.06525985    -0.55220
O1026       O  0.88981673  0.97018310  0.09930325    -0.74570
C1027       C  0.86771658  0.93568219  0.10654877     0.97770
O1028       O  0.90841688  0.86558973  0.18725712    -0.63390
O1029       O  0.11525744  0.85429176  0.13546002    -0.58200
O1030       O  0.95267440  0.83620840  0.14600893    -0.94880
O1031       O  0.02204701  0.83077772  0.12794272    -0.93310
O1032       O  0.09166153  0.87369287  0.20198983    -0.93660
O1033       O  0.02415159  0.90334327  0.22865526    -0.92450
C1034       C  0.98584921  0.81359972  0.13630736     1.16610
H1035       H  0.12016806  0.94147618  0.15519382     0.32560
H1036       H  0.95628535  0.95626043  0.20345044     0.43410
H1037       H  0.96308057  0.90158244  0.10602287     0.36930
H1038       H  0.99320045  0.07820841  0.13076826     0.33410
H1039       H  0.07693524  0.97645638  0.24175479     0.25200
H1040       H  0.92195877  0.12758576  0.17679520     0.31140
H1041       H  0.89694901  0.06116488  0.08720909     0.37050
H1042       H  0.10827857  0.87887699  0.21739037     0.31510
H1043       H  0.14300818  0.87152837  0.13223246     0.30390
H1044       H  0.07352826  0.84902301  0.08374207     0.32070
H1045       H  0.94048908  0.98010685  0.05646492     0.31030
H1046       H  0.99979914  0.92278138  0.23594851     0.35030
H1047       H  0.93271335  0.84270801  0.19031275     0.27770
H1048       H  0.13932026  0.10211152  0.14234262     0.32000
H1049       H  0.97368204  0.05758115  0.06416252     0.34850
H1050       H  0.11385902  0.85190592  0.15346562     0.27460
H1051       H  0.90782375  0.88434701  0.20239389     0.40330
H1052       H  0.97057046  0.04393957  0.22691160     0.30390
H1053       H  0.07209749  0.02060377  0.22615797     0.38000
H1054       H  0.95614420  0.93344864  0.06739588     0.29850
H1055       H  0.93237015  0.11745696  0.14913907     0.29920
H1056       H  0.11182808  0.10530677  0.11789175     0.30180
C1057       C  0.96949840  0.25395040  0.16449840    -0.06970
C1058       C  0.97690881  0.23556851  0.18769367    -0.18090
C1059       C  0.99841242  0.19331149  0.19034451     0.10230
C1060       C  0.01177844  0.16834257  0.16929755    -0.06890
C1061       C  0.00199865  0.18569882  0.14609504    -0.18130
C1062       C  0.98083289  0.22817797  0.14343505     0.10260
S1063       S  0.01065751  0.17490007  0.22095275    -0.33090
S1064       S  0.97231021  0.25060540  0.11312891    -0.33100
H1065       H  0.98836295  0.21206365  0.10001356     0.28270
H1066       H  0.05224739  0.15356022  0.21491841     0.28270
H1067       H  0.96927629  0.25600870  0.20385450     0.18860
H1068       H  0.01071577  0.16570739  0.12996503     0.18870
C1069       C  0.99435427  0.66862080  0.13606739    -0.06970
C1070       C  0.99079826  0.69177281  0.11386536    -0.18090
C1071       C  0.98566391  0.73918890  0.11340344     0.10230
C1072       C  0.98384544  0.76390367  0.13560167    -0.06890
C1073       C  0.98660561  0.74078353  0.15779172    -0.18130
C1074       C  0.99150585  0.69337670  0.15828709     0.10260
S1075       S  0.98156079  0.76627083  0.08405849    -0.33090
S1076       S  0.99295800  0.66669913  0.18778838    -0.33100
H1077       H  0.96963313  0.62745363  0.18076724     0.28270
H1078       H  0.95526802  0.80404818  0.09204087     0.28270
H1079       H  0.99186831  0.67272370  0.09680090     0.18860
H1080       H  0.98573388  0.75989995  0.17484388     0.18870
C1081       C  0.20958619  0.99400088  0.19224631    -0.06970
C1082       C  0.23643065  0.03144873  0.18592930    -0.18090
C1083       C  0.28374789  0.03168633  0.18982518     0.10230
C1084       C  0.30607222  0.99407806  0.20110048    -0.06890
C1085       C  0.27899524  0.95704949  0.20761662    -0.18130
C1086       C  0.23228980  0.95606883  0.20293281     0.10260
S1087       S  0.31356078  0.08018608  0.17873995    -0.33090
S1088       S  0.20488480  0.90339405  0.20954755    -0.33100
H1089       H  0.18470588  0.90019034  0.18638603     0.28270
H1090       H  0.34877226  0.05386405  0.16804181     0.28270
H1091       H  0.22060576  0.06066077  0.17727038     0.18860
H1092       H  0.29451880  0.92752215  0.21612672     0.18870
C1093       C  0.71097171  0.00433433  0.19668494    -0.06970
C1094       C  0.73156981  0.96092002  0.19735780    -0.18090
C1095       C  0.77829360  0.95460728  0.19455827     0.10230
C1096       C  0.80605311  0.99228596  0.18950601    -0.06890
C1097       C  0.78529933  0.03603993  0.18908532    -0.18130
C1098       C  0.73841973  0.04243226  0.19271040     0.10260
S1099       S  0.80027473  0.89789780  0.19965806    -0.33090
S1100       S  0.71553442  0.09971393  0.19106260    -0.33100
H1101       H  0.67306164  0.08748097  0.18202154     0.28270
H1102       H  0.83518823  0.91336150  0.21476244     0.28270
H1103       H  0.71117891  0.93158286  0.20129432     0.18860
H1104       H  0.80546738  0.06552087  0.18522787     0.18870
C1105       C  0.68402702  0.43811621  0.19537616    -0.06970
C1106       C  0.70134189  0.40250082  0.18030723    -0.18090
C1107       C  0.74823288  0.39685674  0.17532184     0.10230
C1108       C  0.77994263  0.42810562  0.18507394    -0.06890
C1109       C  0.76244617  0.46288186  0.20055894    -0.18130
C1110       C  0.71612420  0.46775650  0.20607435     0.10260
S1111       S  0.76492250  0.34829375  0.15678812    -0.33090
S1112       S  0.70131026  0.51188068  0.22799161    -0.33100
H1113       H  0.67145376  0.48434707  0.24085697     0.28270
H1114       H  0.80114729  0.33568233  0.17199444     0.28270
H1115       H  0.67813143  0.37858387  0.17229444     0.18860
H1116       H  0.78518521  0.48713693  0.20867450     0.18870
C1117       C  0.27893897  0.43285730  0.19213262    -0.06970
C1118       C  0.26125866  0.47397461  0.18303449    -0.18090
C1119       C  0.21535358  0.48022176  0.17797911     0.10230
C1120       C  0.18442844  0.44471195  0.18245590    -0.06890
C1121       C  0.20215885  0.40345125  0.19181112    -0.18130
C1122       C  0.24861610  0.39697084  0.19638615     0.10260
S1123       S  0.19991912  0.53424869  0.16489356    -0.33090
S1124       S  0.26687917  0.34149773  0.20670451    -0.33100
H1125       H  0.30634503  0.33997265  0.19230312     0.28270
H1126       H  0.18683677  0.51288035  0.14307897     0.28270
H1127       H  0.28353589  0.50217612  0.17984812     0.18860
H1128       H  0.17982859  0.37541632  0.19521913     0.18870
C1129       C  0.50506933  0.17193404  0.23616928    -0.06970
C1130       C  0.50247740  0.18608430  0.21193099    -0.18090
C1131       C  0.47960617  0.22638954  0.20607968     0.10230
C1132       C  0.46035524  0.25364411  0.22493716    -0.06890
C1133       C  0.46049063  0.23789861  0.24897833    -0.18130
C1134       C  0.48279148  0.19715626  0.25478932     0.10260
S1135       S  0.47700208  0.24235517  0.17440572    -0.33090
S1136       S  0.48488191  0.17856036  0.28614200    -0.33100
H1137       H  0.45643933  0.21321288  0.29590059     0.28270
H1138       H  0.44013784  0.27301604  0.17717629     0.28270
H1139       H  0.51698641  0.16489073  0.19745808     0.18860
H1140       H  0.44673391  0.25946016  0.26348188     0.18870
C1141       C  0.49380219  0.76502874  0.23705450    -0.06970
C1142       C  0.48679415  0.74346960  0.25937880    -0.18090
C1143       C  0.49164296  0.69626288  0.26138455     0.10230
C1144       C  0.50330663  0.66976958  0.24048381    -0.06890
C1145       C  0.51139795  0.69156290  0.21826480    -0.18130
C1146       C  0.50661243  0.73887842  0.21630423     0.10260
S1147       S  0.48436380  0.67232018  0.29131687    -0.33090
S1148       S  0.51918319  0.76384612  0.18717345    -0.33100
H1149       H  0.48800845  0.80027583  0.18923176     0.28270
H1150       H  0.51481320  0.63552997  0.28761483     0.28270
H1151       H  0.47881895  0.76377625  0.27554786     0.18860
H1152       H  0.52006848  0.67147857  0.20212908     0.18870
C1153       C  0.76704602  0.88629468  0.05697115    -0.06970
C1154       C  0.76425519  0.87435771  0.08170675    -0.18090
C1155       C  0.79409430  0.89247484  0.09913019     0.10230
C1156       C  0.82742324  0.92334791  0.09156140    -0.06890
C1157       C  0.82489425  0.94029503  0.06759462    -0.18130
C1158       C  0.79559441  0.92201956  0.05032467     0.10260
S1159       S  0.79013686  0.87436311  0.13046549    -0.33090
S1160       S  0.80099239  0.94165185  0.01929988    -0.33100
H1161       H  0.76708653  0.91521541  0.00887055     0.28270
H1162       H  0.75025821  0.84956038  0.12791286     0.28270
H1163       H  0.74234789  0.84689941  0.08682370     0.18860
H1164       H  0.84865735  0.96531792  0.06141774     0.18870
C1165       C  0.79851569  0.52249274  0.04014304    -0.06970
C1166       C  0.83570796  0.49685990  0.03123286    -0.18090
C1167       C  0.85313890  0.46042929  0.04462507     0.10230
C1168       C  0.83441821  0.45121050  0.06759982    -0.06890
C1169       C  0.79156317  0.46868523  0.07335309    -0.18130
C1170       C  0.77326139  0.50493166  0.06005815     0.10260
S1171       S  0.90453010  0.43261665  0.03425937    -0.33090
S1172       S  0.71983346  0.52953712  0.07032040    -0.33100
H1173       H  0.70991980  0.49682303  0.08804857     0.28270
H1174       H  0.90292792  0.39689532  0.05117904     0.28270
H1175       H  0.85371456  0.50743873  0.01507028     0.18860
H1176       H  0.77640838  0.45968645  0.09063987     0.18870
C1177       C  0.15628224  0.97455695  0.07305172    -0.06970
C1178       C  0.13536906  0.97217857  0.05016921    -0.18090
C1179       C  0.15365063  0.94419831  0.03163651     0.10230
C1180       C  0.19240874  0.91719751  0.03676526    -0.06890
C1181       C  0.21816546  0.92852529  0.05752308    -0.18130
C1182       C  0.20022301  0.95679658  0.07579127     0.10260
S1183       S  0.12456239  0.94224054  0.00287150    -0.33090
S1184       S  0.23067550  0.96142375  0.10415515    -0.33100
H1185       H  0.20612128  0.99966996  0.11308758     0.28270
H1186       H  0.16439495  0.93627622  0.98896414     0.28270
H1187       H  0.10210766  0.98749217  0.04774062     0.18860
H1188       H  0.25009912  0.91128515  0.06110605     0.18870
C1189       C  0.22650613  0.56446978  0.05915596    -0.06970
C1190       C  0.21198853  0.52058476  0.05334614    -0.18090
C1191       C  0.18264585  0.49736551  0.06885001     0.10230
C1192       C  0.16413845  0.51995942  0.08988385    -0.06890
C1193       C  0.18347609  0.56139604  0.09710142    -0.18130
C1194       C  0.21515013  0.58309485  0.08227030     0.10260
S1195       S  0.16953843  0.43982583  0.06002867    -0.33090
S1196       S  0.23646531  0.63788970  0.09139819    -0.33100
H1197       H  0.21888810  0.63803136  0.11529856     0.28270
H1198       H  0.17140249  0.42356067  0.08409996     0.28270
H1199       H  0.22063379  0.50561521  0.03576800     0.18860
H1200       H  0.17158378  0.57859135  0.11354205     0.18870
C1201       C  0.53734541  0.73309274  0.98875621    -0.06970
C1202       C  0.51861139  0.73531321  0.96544731    -0.18090
C1203       C  0.47459069  0.72221146  0.96156110     0.10230
C1204       C  0.44855459  0.70833787  0.98164417    -0.06890
C1205       C  0.46747709  0.70577554  0.00497722    -0.18130
C1206       C  0.51213646  0.71773718  0.00868543     0.10260
S1207       S  0.45404611  0.72241799  0.93057367    -0.33090
S1208       S  0.53735194  0.71194959  0.03849097    -0.33100
H1209       H  0.49952378  0.69362633  0.05016397     0.28270
H1210       H  0.42211441  0.68816774  0.93395262     0.28270
H1211       H  0.53936773  0.74450571  0.94996528     0.18860
H1212       H  0.44681954  0.69598246  0.02034654     0.18870
C1213       C  0.03601978  0.73856453  0.99334470    -0.06970
C1214       C  0.01656699  0.71938501  0.01428988    -0.18090
C1215       C  0.97504658  0.69810103  0.01340141     0.10230
C1216       C  0.95052307  0.69788154  0.99150639    -0.06890
C1217       C  0.96878011  0.71841496  0.97073014    -0.18130
C1218       C  0.01161819  0.73781907  0.97126468     0.10260
S1219       S  0.95394667  0.67312383  0.04108277    -0.33090
S1220       S  0.03345097  0.76020028  0.94324672    -0.33100
H1221       H  0.07439266  0.73533934  0.94447942     0.28270
H1222       H  0.92501895  0.64225430  0.02953986     0.28270
H1223       H  0.03520928  0.71867677  0.03128398     0.18860
H1224       H  0.94886850  0.72064939  0.95421231     0.18870
C1225       C  0.29113015  0.52530613  0.94745928    -0.06970
C1226       C  0.29297324  0.51178740  0.92281226    -0.18090
C1227       C  0.29690556  0.46558682  0.91595017     0.10230
C1228       C  0.29749574  0.43132640  0.93406461    -0.06890
C1229       C  0.29714010  0.44497738  0.95866370    -0.18130
C1230       C  0.29404104  0.49105739  0.96553016     0.10260
S1231       S  0.29764983  0.45272505  0.88376581    -0.33090
S1232       S  0.29031033  0.50319156  0.99776196    -0.33100
H1233       H  0.25367412  0.53408054  0.99541655     0.28270
H1234       H  0.34021771  0.43065399  0.88466029     0.28270
H1235       H  0.29115317  0.53743468  0.90873786     0.18860
H1236       H  0.29754408  0.41932882  0.97276697     0.18870
C1237       C  0.25968451  0.92960755  0.94659341    -0.06970
C1238       C  0.27275580  0.96026840  0.96515246    -0.18090
C1239       C  0.27493286  0.00787391  0.96126874     0.10230
C1240       C  0.26319469  0.02634375  0.93826780    -0.06890
C1241       C  0.25002093  0.99550413  0.91980357    -0.18130
C1242       C  0.24875275  0.94792909  0.92353307     0.10260
S1243       S  0.28876225  0.04331559  0.98710648    -0.33090
S1244       S  0.23204062  0.91252777  0.89817088    -0.33100
H1245       H  0.25594824  0.87303167  0.90529432     0.28270
H1246       H  0.31392181  0.07482362  0.97396437     0.28270
H1247       H  0.28049068  0.94707410  0.98309259     0.18860
H1248       H  0.24037360  0.00873698  0.90216905     0.18870
C1249       C  0.72442583  0.41056902  0.93747180    -0.06970
C1250       C  0.75132467  0.44111862  0.92428417    -0.18090
C1251       C  0.75226129  0.48831309  0.92978226     0.10230
C1252       C  0.72646269  0.50700443  0.94945745    -0.06890
C1253       C  0.69899846  0.47681866  0.96253463    -0.18130
C1254       C  0.69787105  0.42928541  0.95693178     0.10260
S1255       S  0.78617516  0.52320138  0.91030681    -0.33090
S1256       S  0.66495215  0.39248169  0.97594387    -0.33100
H1257       H  0.64808902  0.42652700  0.99200450     0.28270
H1258       H  0.75811330  0.56235754  0.91213032     0.28270
H1259       H  0.77158987  0.42819539  0.90911510     0.18860
H1260       H  0.67946994  0.49036816  0.97780349     0.18870
C1261       C  0.69448195  0.00429622  0.93958464    -0.06970
C1262       C  0.68747397  0.99310600  0.96411034    -0.18090
C1263       C  0.68505246  0.94728504  0.97160883     0.10230
C1264       C  0.69252233  0.91125070  0.95428897    -0.06890
C1265       C  0.69844122  0.92290273  0.92969116    -0.18130
C1266       C  0.69831108  0.96839991  0.92217780     0.10260
S1267       S  0.67324758  0.93625999  0.00340633    -0.33090
S1268       S  0.70616837  0.97841186  0.89014409    -0.33100
H1269       H  0.66258423  0.99757654  0.88738642     0.28270
H1270       H  0.66965844  0.98190049  0.01141044     0.28270
H1271       H  0.68360324  0.02052868  0.97737887     0.18860
H1272       H  0.70336564  0.89622640  0.91604412     0.18870
C1273       C  0.53958047  0.19590517  0.90064891    -0.06970
C1274       C  0.51810259  0.20194972  0.87823046    -0.18090
C1275       C  0.47675062  0.22505453  0.87715065     0.10230
C1276       C  0.45598901  0.24080023  0.89890830    -0.06890
C1277       C  0.47896096  0.23696638  0.92110782    -0.18130
C1278       C  0.52061034  0.21448539  0.92220308     0.10260
S1279       S  0.45037509  0.23100474  0.84786737    -0.33090
S1280       S  0.54654756  0.20845069  0.95179852    -0.33100
H1281       H  0.56866137  0.16653567  0.94669955     0.28270
H1282       H  0.43953691  0.27725211  0.85210486     0.28270
H1283       H  0.53410095  0.18965277  0.86151433     0.18860
H1284       H  0.46254513  0.24812142  0.93792749     0.18870
C1285       C  0.03933144  0.21273432  0.89512042    -0.06970
C1286       C  0.01904102  0.19316002  0.87462623    -0.18090
C1287       C  0.97238525  0.19696970  0.87100598     0.10230
C1288       C  0.94479428  0.22034230  0.88852062    -0.06890
C1289       C  0.96550323  0.24041422  0.90890809    -0.18130
C1290       C  0.01226264  0.23672920  0.91239934     0.10260
S1291       S  0.95079600  0.17338139  0.84297503    -0.33090
S1292       S  0.03557064  0.26401829  0.93903205    -0.33100
H1293       H  0.07185981  0.23298617  0.94190948     0.28270
H1294       H  0.91910638  0.20903671  0.83941512     0.28270
H1295       H  0.03996891  0.17629846  0.86082739     0.18860
H1296       H  0.94502326  0.25800408  0.92263004     0.18870
C1297       C  0.62611970  0.52772944  0.29784055    -0.06970
C1298       C  0.60607317  0.56900668  0.30554427    -0.18090
C1299       C  0.61702011  0.58838054  0.32778864     0.10230
C1300       C  0.65066093  0.56768521  0.34213196    -0.06890
C1301       C  0.67033800  0.52594496  0.33488038    -0.18130
C1302       C  0.65795397  0.50525765  0.31295236     0.10260
S1303       S  0.58971206  0.64174396  0.33601193    -0.33090
S1304       S  0.68536982  0.45161853  0.30503073    -0.33100
H1305       H  0.68239808  0.45688239  0.27968799     0.28270
H1306       H  0.58861001  0.63278421  0.36114117     0.28270
H1307       H  0.58012508  0.58541760  0.29464796     0.18860
H1308       H  0.69754032  0.51105677  0.34552728     0.18870
C1309       C  0.68674852  0.95189683  0.29928093    -0.06970
C1310       C  0.67543270  0.96243209  0.32363332    -0.18090
C1311       C  0.69580344  0.93883069  0.34300431     0.10230
C1312       C  0.72823783  0.90378744  0.33803638    -0.06890
C1313       C  0.74406244  0.89807523  0.31396948    -0.18130
C1314       C  0.72360739  0.92168053  0.29461124     0.10260
S1315       S  0.67606197  0.95183265  0.37354293    -0.33090
S1316       S  0.74251434  0.90831519  0.26399745    -0.33100
H1317       H  0.72506656  0.94845180  0.25345070     0.28270
H1318       H  0.71488594  0.93489658  0.38537706     0.28270
H1319       H  0.64730664  0.98563529  0.32751550     0.18860
H1320       H  0.76913095  0.87166335  0.30984289     0.18870
C1321       C  0.26091760  0.53369385  0.33521411    -0.06970
C1322       C  0.24642923  0.54040991  0.31110023    -0.18090
C1323       C  0.26737503  0.51694059  0.29143540     0.10230
C1324       C  0.30301368  0.48533619  0.29584501    -0.06890
C1325       C  0.31273233  0.47387663  0.32007326    -0.18130
C1326       C  0.29269673  0.49799621  0.33974168     0.10260
S1327       S  0.25103789  0.53245437  0.26090303    -0.33090
S1328       S  0.31327968  0.48460852  0.36988576    -0.33100
H1329       H  0.28338240  0.51251805  0.38348994     0.28270
H1330       H  0.26843228  0.49261867  0.24946774     0.28270
H1331       H  0.22227532  0.56762016  0.30727862     0.18860
H1332       H  0.34015097  0.44990718  0.32371523     0.18870
C1333       C  0.32578382  0.85757878  0.33893524    -0.06970
C1334       C  0.31002620  0.90087128  0.33212163    -0.18090
C1335       C  0.32486652  0.92039013  0.31057173     0.10230
C1336       C  0.35620707  0.89604323  0.29566619    -0.06890
C1337       C  0.37014122  0.85191967  0.30190587    -0.18130
C1338       C  0.35575781  0.83262017  0.32350965     0.10260
S1339       S  0.30247936  0.97606552  0.30289432    -0.33090
S1340       S  0.37500163  0.77508916  0.32941720    -0.33100
H1341       H  0.37966505  0.78110697  0.35462230     0.28270
H1342       H  0.30976586  0.97135972  0.27757893     0.28270
H1343       H  0.28489803  0.91881142  0.34325200     0.18860
H1344       H  0.39480579  0.83343898  0.29071094     0.18870
C1345       C  0.94518818  0.71575688  0.39421350    -0.06970
C1346       C  0.96161336  0.72180129  0.41787347    -0.18090
C1347       C  0.00575153  0.70931492  0.42333052     0.10230
C1348       C  0.03368343  0.69169954  0.40451051    -0.06890
C1349       C  0.01616753  0.68289426  0.38126302    -0.18130
C1350       C  0.97205878  0.69532700  0.37581204     0.10260
S1351       S  0.02459598  0.71648164  0.45438368    -0.33090
S1352       S  0.95295301  0.68699253  0.34485735    -0.33100
H1353       H  0.92255553  0.72443345  0.34464080     0.28270
H1354       H  0.05957902  0.68338323  0.45292944     0.28270
H1355       H  0.93972565  0.73558217  0.43218481     0.18860
H1356       H  0.03787387  0.66980434  0.36673219     0.18870
C1357       C  0.44612043  0.72396004  0.40232674    -0.06970
C1358       C  0.46866595  0.74731919  0.38416784    -0.18090
C1359       C  0.51477535  0.74115928  0.38066858     0.10230
C1360       C  0.53989158  0.71284043  0.39681808    -0.06890
C1361       C  0.51693515  0.68919383  0.41506507    -0.18130
C1362       C  0.47020704  0.69429743  0.41785818     0.10260
S1363       S  0.53791621  0.76864713  0.35423260    -0.33090
S1364       S  0.44304025  0.66233038  0.44147455    -0.33100
H1365       H  0.40895560  0.69524821  0.44634435     0.28270
H1366       H  0.56911831  0.73344442  0.34870261     0.28270
H1367       H  0.44981529  0.76858968  0.37164019     0.18860
H1368       H  0.53549704  0.66762770  0.42762083     0.18870
C1369       C  0.18135134  0.42227162  0.45197801    -0.06970
C1370       C  0.17446501  0.43449600  0.42764574    -0.18090
C1371       C  0.17478435  0.48016533  0.42047525     0.10230
C1372       C  0.18357200  0.51511842  0.43796306    -0.06890
C1373       C  0.18793117  0.50280688  0.46253274    -0.18130
C1374       C  0.18597355  0.45727907  0.46974301     0.10260
S1375       S  0.16657012  0.49029793  0.38845342    -0.33090
S1376       S  0.19322224  0.44609716  0.50169489    -0.33100
H1377       H  0.15077739  0.42586604  0.50396696     0.28270
H1378       H  0.20658472  0.51446965  0.38653253     0.28270
H1379       H  0.17020967  0.40803667  0.41392760     0.18860
H1380       H  0.19354409  0.52885459  0.47630542     0.18870
C1381       C  0.22373020  0.92011771  0.43797757    -0.06970
C1382       C  0.23711529  0.95113426  0.41989498    -0.18090
C1383       C  0.23799526  0.99888382  0.42419135     0.10230
C1384       C  0.22647178  0.01743150  0.44745388    -0.06890
C1385       C  0.21326211  0.98652533  0.46560820    -0.18130
C1386       C  0.21152887  0.93878248  0.46116306     0.10260
S1387       S  0.25462898  0.03430291  0.39915214    -0.33090
S1388       S  0.19754567  0.90314245  0.48653043    -0.33100
H1389       H  0.16844425  0.87511303  0.47326729     0.28270
H1390       H  0.23007730  0.07353385  0.40663941     0.28270
H1391       H  0.24697818  0.93797868  0.40205103     0.18860
H1392       H  0.20492434  0.99963748  0.48367346     0.18870
C1393       C  0.76119674  0.41653890  0.44600908    -0.06970
C1394       C  0.79835938  0.43504858  0.43355373    -0.18090
C1395       C  0.79948217  0.48176910  0.42667519     0.10230
C1396       C  0.76305865  0.51256823  0.43267328    -0.06890
C1397       C  0.72647073  0.49405829  0.44539412    -0.18130
C1398       C  0.72531035  0.44784831  0.45229824     0.10260
S1399       S  0.84742772  0.49892189  0.40898531    -0.33090
S1400       S  0.67746118  0.43247045  0.47059505    -0.33100
H1401       H  0.70441113  0.40881760  0.48738491     0.28270
H1402       H  0.82149217  0.52392401  0.39211429     0.28270
H1403       H  0.82634696  0.41261327  0.42836524     0.18860
H1404       H  0.69836562  0.51628305  0.45068497     0.18870
C1405       C  0.80630002  0.01074102  0.44744908    -0.06970
C1406       C  0.80762074  0.97926734  0.46668617    -0.18090
C1407       C  0.80866760  0.93217788  0.46224515     0.10230
C1408       C  0.80729271  0.91557201  0.43798032    -0.06890
C1409       C  0.80865176  0.94704693  0.41876189    -0.18130
C1410       C  0.80876100  0.99407178  0.42319714     0.10260
S1411       S  0.81219759  0.89533235  0.48829071    -0.33090
S1412       S  0.81258581  0.03073356  0.39712638    -0.33100
H1413       H  0.83980695  0.06281902  0.40896024     0.28270
H1414       H  0.84025498  0.86253675  0.47656594     0.28270
H1415       H  0.80650317  0.99134527  0.48545091     0.18860
H1416       H  0.80832494  0.93506073  0.39997906     0.18870
C1417       C  0.94536688  0.20430467  0.49047455    -0.06970
C1418       C  0.96667626  0.21782218  0.51204088    -0.18090
C1419       C  0.01106480  0.23271672  0.51147762     0.10230
C1420       C  0.03318580  0.23530984  0.48877374    -0.06890
C1421       C  0.01096065  0.22348741  0.46718338    -0.18130
C1422       C  0.96749197  0.20721694  0.46785701     0.10260
S1423       S  0.03984023  0.24560499  0.53965621    -0.33090
S1424       S  0.94160284  0.19184557  0.43929360    -0.33100
H1425       H  0.91894588  0.15409309  0.44854217     0.28270
H1426       H  0.00381393  0.23587172  0.55545201     0.28270
H1427       H  0.94830417  0.21693901  0.52916821     0.18860
H1428       H  0.02857607  0.22467487  0.44980434     0.18870
C1429       C  0.53929026  0.22981389  0.48062665    -0.06970
C1430       C  0.51738019  0.24836387  0.50103831    -0.18090
C1431       C  0.47240855  0.23922980  0.50569872     0.10230
C1432       C  0.44773686  0.21223087  0.48882551    -0.06890
C1433       C  0.47002596  0.19393460  0.46817223    -0.18130
C1434       C  0.51562719  0.20235353  0.46398426     0.10260
S1435       S  0.45025704  0.26149605  0.53427402    -0.33090
S1436       S  0.54227806  0.17644568  0.43747923    -0.33100
H1437       H  0.57571124  0.20941047  0.43488603     0.28270
H1438       H  0.42354811  0.22370682  0.53886941     0.28270
H1439       H  0.53642742  0.26749153  0.51441827     0.18860
H1440       H  0.45167770  0.17398028  0.45489743     0.18870
C1441       C  0.32400802  0.06872416  0.54548016    -0.06970
C1442       C  0.30178134  0.03105690  0.55495694    -0.18090
C1443       C  0.31137951  0.01559444  0.57828793     0.10230
C1444       C  0.34397769  0.03830175  0.59234157    -0.06890
C1445       C  0.36617711  0.07580267  0.58279967    -0.18130
C1446       C  0.35756228  0.09026228  0.55927039     0.10260
S1447       S  0.28022318  0.96770149  0.58934100    -0.33090
S1448       S  0.38850529  0.13817807  0.54847888    -0.33100
H1449       H  0.39957122  0.11745354  0.52591438     0.28270
H1450       H  0.28417385  0.97909747  0.61424418     0.28270
H1451       H  0.27478514  0.01552770  0.54470018     0.18860
H1452       H  0.39269452  0.09209412  0.59309187     0.18870
C1453       C  0.66794549  0.98322984  0.58451970    -0.06970
C1454       C  0.70391356  0.01126648  0.59142960    -0.18090
C1455       C  0.72920877  0.03542212  0.57405784     0.10230
C1456       C  0.71768004  0.03339710  0.54902073    -0.06890
C1457       C  0.68444857  0.00223509  0.54199413    -0.18130
C1458       C  0.66023439  0.97698922  0.55925006     0.10260
S1459       S  0.77183652  0.07295054  0.58517314    -0.33090
S1460       S  0.61546820  0.94199072  0.54817745    -0.33100
H1461       H  0.62479491  0.90723975  0.56491162     0.28270
H1462       H  0.80313217  0.05909480  0.56707233     0.28270
H1463       H  0.71008095  0.01725923  0.61067209     0.18860
H1464       H  0.67471013  0.00018437  0.52297031     0.18870
C1465       C  0.66691198  0.37543777  0.53925196    -0.06970
C1466       C  0.62244816  0.36406821  0.54455050    -0.18090
C1467       C  0.60416550  0.37353250  0.56735912     0.10230
C1468       C  0.63023531  0.39649557  0.58490828    -0.06890
C1469       C  0.67308908  0.41185910  0.57881928    -0.18130
C1470       C  0.69159550  0.40208320  0.55600511     0.10260
S1471       S  0.54655306  0.35752973  0.57219542    -0.33090
S1472       S  0.74724577  0.42314709  0.54968204    -0.33100
H1473       H  0.74414006  0.41939951  0.52417010     0.28270
H1474       H  0.55221965  0.34538909  0.59663494     0.28270
H1475       H  0.60318903  0.34379551  0.53178782     0.18860
H1476       H  0.69161797  0.43260968  0.59168557     0.18870
C1477       C  0.30971954  0.45351375  0.58783230    -0.06970
C1478       C  0.27280418  0.42709969  0.59494433    -0.18090
C1479       C  0.24813671  0.40154360  0.57778274     0.10230
C1480       C  0.26042337  0.40207637  0.55279785    -0.06890
C1481       C  0.29339736  0.43322489  0.54550536    -0.18130
C1482       C  0.31807985  0.45868054  0.56265977     0.10260
S1483       S  0.20489356  0.36513079  0.58925364    -0.33090
S1484       S  0.36482454  0.49237743  0.55252370    -0.33100
H1485       H  0.35696729  0.48745548  0.52733452     0.28270
H1486       H  0.22043483  0.32588312  0.57668789     0.28270
H1487       H  0.26616244  0.42252132  0.61422589     0.18860
H1488       H  0.30307241  0.43401245  0.52642731     0.18870
C1489       C  0.47347178  0.67559262  0.65692578    -0.06970
C1490       C  0.48170867  0.69597232  0.67960251    -0.18090
C1491       C  0.50476167  0.73629231  0.68105617     0.10230
C1492       C  0.51707192  0.75806026  0.65938138    -0.06890
C1493       C  0.50916320  0.73772266  0.63661919    -0.18130
C1494       C  0.48755988  0.69608551  0.63519944     0.10260
S1495       S  0.51608680  0.75971753  0.71096098    -0.33090
S1496       S  0.47931533  0.66849507  0.60594509    -0.33100
H1497       H  0.50162022  0.70101787  0.59185532     0.28270
H1498       H  0.55129406  0.78790802  0.70343380     0.28270
H1499       H  0.47318919  0.67848145  0.69630662     0.18860
H1500       H  0.51726664  0.75580289  0.62007488     0.18870
C1501       C  0.50092175  0.26278347  0.64606553    -0.06970
C1502       C  0.48663455  0.24471594  0.66835565    -0.18090
C1503       C  0.47482114  0.19896942  0.66997882     0.10230
C1504       C  0.47630625  0.17151091  0.64869246    -0.06890
C1505       C  0.48931698  0.19028564  0.62641346    -0.18130
C1506       C  0.50198450  0.23520299  0.62496710     0.10260
S1507       S  0.45966846  0.17756659  0.69953460    -0.33090
S1508       S  0.52134054  0.25467769  0.59593172    -0.33100
H1509       H  0.48260088  0.28221563  0.59235346     0.28270
H1510       H  0.48611827  0.13740258  0.69735331     0.28270
H1511       H  0.48415638  0.26648331  0.68444599     0.18860
H1512       H  0.49132102  0.16910725  0.61006472     0.18870
C1513       C  0.19434311  0.94899669  0.70384384    -0.06970
C1514       C  0.21986239  0.98775909  0.70966335    -0.18090
C1515       C  0.26719439  0.98923997  0.70630070     0.10230
C1516       C  0.29186719  0.95147330  0.69607421    -0.06890
C1517       C  0.26683196  0.91211855  0.69076614    -0.18130
C1518       C  0.21919906  0.91052339  0.69427538     0.10260
S1519       S  0.29413491  0.04022063  0.71681820    -0.33090
S1520       S  0.19237262  0.85878049  0.68492245    -0.33100
H1521       H  0.15774074  0.88147079  0.67207327     0.28270
H1522       H  0.33223226  0.01699781  0.72614455     0.28270
H1523       H  0.20291136  0.01749871  0.71757130     0.18860
H1524       H  0.28422606  0.88268555  0.68279463     0.18870
C1525       C  0.79033642  0.91958335  0.69460317    -0.06970
C1526       C  0.76799848  0.87830248  0.69081676    -0.18090
C1527       C  0.72094495  0.87748261  0.68757095     0.10230
C1528       C  0.69548815  0.91887085  0.68812973    -0.06890
C1529       C  0.71793365  0.95984548  0.69225286    -0.18130
C1530       C  0.76455608  0.96063150  0.69568885     0.10260
S1531       S  0.69537897  0.82264071  0.68368705    -0.33090
S1532       S  0.78871287  0.01507989  0.70265889    -0.33100
H1533       H  0.81498428  0.99843293  0.72204899     0.28270
H1534       H  0.65464629  0.83473906  0.69560559     0.28270
H1535       H  0.78726366  0.84650356  0.69060467     0.18860
H1536       H  0.69894960  0.99183299  0.69267971     0.18870
C1537       C  0.12954317  0.05115182  0.79764943    -0.06970
C1538       C  0.17118342  0.03143158  0.80390680    -0.18090
C1539       C  0.19126471  0.04229274  0.82603360     0.10230
C1540       C  0.16910485  0.07371026  0.84197421    -0.06890
C1541       C  0.12674587  0.09208913  0.83590399    -0.18130
C1542       C  0.10721617  0.08182236  0.81372563     0.10260
S1543       S  0.24423660  0.01416435  0.83317232    -0.33090
S1544       S  0.05224060  0.10651787  0.80765573    -0.33100
H1545       H  0.05984999  0.11188187  0.78254121     0.28270
H1546       H  0.23920457  0.01829223  0.85861530     0.28270
H1547       H  0.18669770  0.00552431  0.79215307     0.18860
H1548       H  0.10995573  0.11704092  0.84774743     0.18870
C1549       C  0.79916517  0.97779412  0.79276411    -0.06970
C1550       C  0.76819863  0.01303844  0.78699512    -0.18090
C1551       C  0.74466440  0.03766221  0.80539636     0.10230
C1552       C  0.75241810  0.02718518  0.83011765    -0.06890
C1553       C  0.77870452  0.98834274  0.83563310    -0.18130
C1554       C  0.80099213  0.96287197  0.81719628     0.10260
S1555       S  0.71040893  0.08687813  0.79744216    -0.33090
S1556       S  0.83656268  0.91584758  0.82635868    -0.33100
H1557       H  0.82260580  0.88775965  0.80696153     0.28270
H1558       H  0.71230383  0.08006270  0.77199392     0.28270
H1559       H  0.76643402  0.02462967  0.76830907     0.18860
H1560       H  0.78520372  0.98012936  0.85454358     0.18870
C1561       C  0.69316907  0.48239283  0.68785740    -0.06970
C1562       C  0.71167284  0.52227480  0.69829668    -0.18090
C1563       C  0.75835460  0.52561472  0.70423793     0.10230
C1564       C  0.78903094  0.48846534  0.69971789    -0.06890
C1565       C  0.77071221  0.44917154  0.68892335    -0.18130
C1566       C  0.72463956  0.44600566  0.68254492     0.10260
S1567       S  0.77599743  0.57747753  0.71881210    -0.33090
S1568       S  0.70957394  0.39453032  0.66658261    -0.33100
H1569       H  0.68876770  0.41807645  0.64724832     0.28270
H1570       H  0.80304656  0.55520446  0.73622900     0.28270
H1571       H  0.68939858  0.55107175  0.70244928     0.18860
H1572       H  0.79300542  0.42031235  0.68486321     0.18870
C1573       C  0.28428136  0.50233301  0.68573566    -0.06970
C1574       C  0.26023107  0.54377448  0.68868488    -0.18090
C1575       C  0.21301567  0.54503029  0.69073399     0.10230
C1576       C  0.18884207  0.50381362  0.69021056    -0.06890
C1577       C  0.21274351  0.46267542  0.68610357    -0.18130
C1578       C  0.25979504  0.46155501  0.68353727     0.10260
S1579       S  0.18566463  0.60037064  0.69363158    -0.33090
S1580       S  0.28630541  0.40712256  0.67659147    -0.33100
H1581       H  0.31548116  0.42447671  0.65879316     0.28270
H1582       H  0.14560491  0.58782682  0.68184735     0.28270
H1583       H  0.27836947  0.57546704  0.68945733     0.18860
H1584       H  0.19477691  0.43086825  0.68553834     0.18870
C1585       C  0.99408023  0.76333535  0.73257013    -0.06970
C1586       C  0.98541232  0.74511245  0.70942501    -0.18090
C1587       C  0.00160153  0.70181024  0.70308902     0.10230
C1588       C  0.02564186  0.67621522  0.72053994    -0.06890
C1589       C  0.03831789  0.69649437  0.74264873    -0.18130
C1590       C  0.02181629  0.73947916  0.74913034     0.10260
S1591       S  0.98953639  0.68016434  0.67293505    -0.33090
S1592       S  0.03406260  0.76018370  0.77952204    -0.33100
H1593       H  0.99262595  0.78368285  0.78299630     0.28270
H1594       H  0.02387965  0.64629929  0.67280681     0.28270
H1595       H  0.96640550  0.76484342  0.69620765     0.18860
H1596       H  0.05660470  0.67689433  0.75617855     0.18870
C1597       C  0.97366450  0.26531812  0.74638521    -0.06970
C1598       C  0.97600144  0.24484503  0.72314102    -0.18090
C1599       C  0.98481137  0.19806059  0.72040228     0.10230
C1600       C  0.99183884  0.17132336  0.74133481    -0.06890
C1601       C  0.98904244  0.19185090  0.76454892    -0.18130
C1602       C  0.98043704  0.23851280  0.76729147     0.10260
S1603       S  0.98604460  0.17442492  0.68990604    -0.33090
S1604       S  0.97859246  0.26195576  0.79787826    -0.33100
H1605       H  0.94872831  0.29841437  0.79268432     0.28270
H1606       H  0.96208174  0.13517847  0.69574479     0.28270
H1607       H  0.97214847  0.26564928  0.70701521     0.18860
H1608       H  0.99263482  0.17117411  0.78070785     0.18870
C1609       C  0.78606808  0.37164530  0.83572967    -0.06970
C1610       C  0.81311159  0.40586755  0.84520586    -0.18090
C1611       C  0.83418903  0.43599865  0.82970573     0.10230
C1612       C  0.83146904  0.42862406  0.80412163    -0.06890
C1613       C  0.79941632  0.39904546  0.79488872    -0.18130
C1614       C  0.77541578  0.37126611  0.81042461     0.10260
S1615       S  0.86506554  0.48122035  0.84396109    -0.33090
S1616       S  0.73489434  0.33354242  0.79672032    -0.33100
H1617       H  0.73306925  0.35401868  0.77362582     0.28270
H1618       H  0.84566542  0.51492859  0.82897277     0.28270
H1619       H  0.81844546  0.40863645  0.86473279     0.18860
H1620       H  0.79549469  0.39547118  0.77531152     0.18870
C1621       C  0.22882330  0.40141704  0.83044629    -0.06970
C1622       C  0.20222468  0.43986403  0.83707436    -0.18090
C1623       C  0.17729331  0.46434727  0.81958199     0.10230
C1624       C  0.17854477  0.45031012  0.79483007    -0.06890
C1625       C  0.20959068  0.41559313  0.78790784    -0.18130
C1626       C  0.23493281  0.39145132  0.80533273     0.10260
S1627       S  0.13909914  0.50861912  0.83029541    -0.33090
S1628       S  0.26883791  0.34354285  0.79473518    -0.33100
H1629       H  0.30275232  0.34930115  0.81225498     0.28270
H1630       H  0.10063180  0.48409185  0.82382453     0.28270
H1631       H  0.19692728  0.44783303  0.85625266     0.18860
H1632       H  0.21074166  0.40408063  0.76904093     0.18870
loop_ 
_geom_bond_atom_site_label_1 
_geom_bond_atom_site_label_2 
_geom_bond_distance 
_geom_bond_site_symmetry_2 
_ccdc_geom_bond_type 
Zr1           O2   2.440       .  S
Zr1           O3   2.450       .  S
Zr1           O4   2.452       .  S
Zr1           O7   2.451       .  S
Zr1           O9   2.382       .  S
Zr1          O10   2.373       .  S
Zr1          O11   2.416   1_655  S
Zr1          O12   2.415       .  S
O2           H58   0.991       .  S
O2           H66   0.991       .  S
O3           C23   1.291       .  A
O4           C25   1.287       .  A
O5          Zr15   2.521       .  S
O5           C24   1.300       .  A
O6          Zr14   2.391       .  S
O6           C25   1.276   1_455  A
O7           C24   1.288       .  A
O8          Zr16   2.356       .  S
O8           C23   1.266       .  A
O9          Zr14   2.391   1_655  S
O9          Zr16   2.392       .  S
O10         Zr15   2.359       .  S
O10         Zr16   2.383       .  S
O10          H45   0.967       .  S
O11         Zr14   2.395       .  S
O11         Zr31   2.398       .  S
O11          H48   0.965       .  S
O12         Zr15   2.379       .  S
O12         Zr31   2.430   1_655  S
Zr13         O38   2.443       .  S
Zr13         O32   2.396       .  S
Zr13         O40   2.405       .  S
Zr13         O28   2.496       .  S
Zr13         O19   2.406   1_455  S
Zr13         O20   2.373       .  S
Zr13         O21   2.368       .  S
Zr13         O22   2.410       .  S
Zr14         O33   2.437       .  S
Zr14         O26   2.435       .  S
Zr14         O27   2.403       .  S
Zr14         O20   2.385       .  S
Zr14         O21   2.377       .  S
Zr15         O17   2.433       .  S
Zr15         O39   2.436       .  S
Zr15         O41   2.403       .  S
Zr15         O19   2.415       .  S
Zr15         O22   2.416   1_655  S
Zr16         O42   2.436       .  S
Zr16         O43   2.441       .  S
Zr16         O18   2.439       .  S
Zr16         O19   2.363       .  S
Zr16         O20   2.364   1_655  S
O17          H54   0.991       .  S
O18          H49   0.989       .  S
O18          H63   0.991       .  S
O20          H46   0.966       .  S
O21         Zr31   2.369       .  S
O22         Zr31   2.356       .  S
O22          H47   0.969       .  S
C23        C1612   1.462       .  S
C24        C1564   1.534       .  S
C25        C1597   1.461       .  S
O26          H62   0.990       .  S
O27          C29   1.279       .  A
O28          C29   1.295       .  A
C29        C1624   1.487       .  S
O30         Zr31   2.439       .  S
O30          H59   0.991       .  S
Zr31         O34   2.437       .  S
Zr31         O35   2.442       .  S
Zr31         O36   2.469       .  S
O32          C37   1.278       .  A
O33          H50   0.991       .  S
O33          H65   0.990       .  S
O34          H51   0.991       .  S
O35          H55   0.990       .  S
O35          H64   0.990       .  S
O36          C37   1.291       .  A
C37        C1576   1.483       .  S
O38          H57   0.990       .  S
O38          H61   0.990       .  S
O39          H53   0.990       .  S
O39          H60   0.991       .  S
O40          C44   1.282       .  A
O41          C44   1.282   1_655  A
O42          H52   0.991       .  S
O43          H56   0.990   1_655  S
C44        C1588   1.449       .  S
Zr67         O68   2.436       .  S
Zr67         O69   2.414       .  S
Zr67         O70   2.457       .  S
Zr67         O73   2.474   1_545  S
Zr67         O75   2.391       .  S
Zr67         O76   2.381   1_545  S
Zr67         O77   2.413   1_455  S
Zr67         O78   2.408   1_545  S
O68         H124   0.991       .  S
O68         H132   0.990       .  S
O69          C89   1.280       .  A
O70          C91   1.289   1_455  A
O71         Zr81   2.506       .  S
O71          C90   1.297       .  A
O72         Zr80   2.388       .  S
O72          C91   1.276       .  A
O73          C90   1.294       .  A
O74         Zr82   2.365       .  S
O74          C89   1.271   1_565  A
O75         Zr80   2.382   1_455  S
O75         Zr82   2.378   1_545  S
O76         Zr81   2.372       .  S
O76         Zr82   2.380       .  S
O76         H111   0.967       .  S
O77         Zr80   2.399       .  S
O77         Zr97   2.399   1_545  S
O77         H114   0.965       .  S
O78         Zr81   2.381       .  S
O78         Zr97   2.424   1_455  S
Zr79        O104   2.446       .  S
Zr79         O98   2.426       .  S
Zr79        O106   2.418       .  S
Zr79         O94   2.478       .  S
Zr79         O85   2.413       .  S
Zr79         O86   2.394       .  S
Zr79         O87   2.368       .  S
Zr79         O88   2.424       .  S
Zr80         O99   2.435       .  S
Zr80         O92   2.437       .  S
Zr80         O93   2.414       .  S
Zr80         O86   2.385   1_545  S
Zr80         O87   2.366   1_545  S
Zr81         O83   2.435       .  S
Zr81        O105   2.439       .  S
Zr81        O107   2.402       .  S
Zr81         O85   2.410   1_455  S
Zr81         O88   2.420   1_455  S
Zr82        O108   2.435       .  S
Zr82        O109   2.435   1_455  S
Zr82         O84   2.437       .  S
Zr82         O85   2.345   1_455  S
Zr82         O86   2.376   1_455  S
O83         H120   0.990       .  S
O84         H115   0.990       .  S
O84         H129   0.989   1_465  S
O86         H112   0.969       .  S
O87         Zr97   2.370       .  S
O88         Zr97   2.369       .  S
O88         H113   0.966       .  S
C89        C1537   1.431       .  S
C90        C1513   1.539       .  S
C91        C1600   1.462       .  S
O92         H128   0.990       .  S
O93          C95   1.282   1_545  A
O94          C95   1.292       .  A
C95        C1549   1.490       .  S
O96         Zr97   2.441       .  S
O96         H125   0.990       .  S
Zr97        O100   2.438   1_565  S
Zr97        O101   2.444       .  S
Zr97        O102   2.455       .  S
O98         C103   1.282       .  A
O99         H116   0.991       .  S
O99         H131   0.990       .  S
O100        H117   0.991       .  S
O101        H121   0.990       .  S
O101        H130   0.990       .  S
O102        C103   1.289       .  A
C103       C1525   1.481       .  S
O104        H123   0.989       .  S
O104        H127   0.990       .  S
O105        H119   0.989       .  S
O105        H126   0.991       .  S
O106        C110   1.276       .  A
O107        C110   1.271   1_455  A
O108        H118   0.991       .  S
O109        H122   0.991       .  S
C110       C1585   1.440       .  S
Zr133       O134   2.438       .  S
Zr133       O135   2.427       .  S
Zr133       O136   2.439       .  S
Zr133       O139   2.468       .  S
Zr133       O141   2.395       .  S
Zr133       O142   2.381       .  S
Zr133       O143   2.419       .  S
Zr133       O144   2.413       .  S
O134        H190   0.990       .  S
O134        H198   0.991       .  S
O135        C155   1.281       .  A
O136        C157   1.285       .  A
O137       Zr147   2.519       .  S
O137        C156   1.299       .  A
O138       Zr146   2.384       .  S
O138        C157   1.274       .  A
O139        C156   1.290       .  A
O140       Zr148   2.373       .  S
O140        C155   1.267       .  A
O141       Zr146   2.380       .  S
O141       Zr148   2.391       .  S
O142       Zr147   2.358       .  S
O142       Zr148   2.372       .  S
O142        H177   0.966       .  S
O143       Zr146   2.399       .  S
O143       Zr163   2.399       .  S
O143        H180   0.966       .  S
O144       Zr147   2.365       .  S
O144       Zr163   2.428       .  S
Zr145       O170   2.439       .  S
Zr145       O164   2.421       .  S
Zr145       O172   2.412       .  S
Zr145       O160   2.506       .  S
Zr145       O151   2.412       .  S
Zr145       O152   2.384       .  S
Zr145       O153   2.361       .  S
Zr145       O154   2.421       .  S
Zr146       O165   2.437       .  S
Zr146       O158   2.435       .  S
Zr146       O159   2.402       .  S
Zr146       O152   2.393       .  S
Zr146       O153   2.366       .  S
Zr147       O149   2.433       .  S
Zr147       O171   2.440       .  S
Zr147       O173   2.367       .  S
Zr147       O151   2.420       .  S
Zr147       O154   2.420       .  S
Zr148       O174   2.434       .  S
Zr148       O175   2.435       .  S
Zr148       O150   2.435       .  S
Zr148       O151   2.344       .  S
Zr148       O152   2.381       .  S
O149        H186   0.991       .  S
O150        H181   0.989       .  S
O150        H195   0.990       .  S
O152        H178   0.968       .  S
O153       Zr163   2.371       .  S
O154       Zr163   2.367       .  S
O154        H179   0.966       .  S
C155       C1468   1.437       .  S
C156       C1561   1.543       .  S
C157       C1501   1.450       .  S
O158        H194   0.990       .  S
O159        C161   1.277       .  A
O160        C161   1.296       .  A
C161       C1477   1.492       .  S
O162       Zr163   2.442       .  S
O162        H191   0.990       .  S
Zr163       O166   2.438       .  S
Zr163       O167   2.446       .  S
Zr163       O168   2.456       .  S
O164        C169   1.281       .  A
O165        H182   0.990       .  S
O165        H197   0.990       .  S
O166        H183   0.991       .  S
O167        H187   0.990       .  S
O167        H196   0.990       .  S
O168        C169   1.288       .  A
C169       C1573   1.484       .  S
O170        H189   0.991       .  S
O170        H193   0.990       .  S
O171        H185   0.990       .  S
O171        H192   0.992       .  S
O172        C176   1.281       .  A
O173        C176   1.274       .  A
O174        H184   0.991       .  S
O175        H188   0.990       .  S
C176       C1489   1.427       .  S
Zr199       O200   2.436       .  S
Zr199       O201   2.425       .  S
Zr199       O202   2.436       .  S
Zr199       O205   2.462   1_545  S
Zr199       O207   2.394       .  S
Zr199       O208   2.380   1_545  S
Zr199       O209   2.418       .  S
Zr199       O210   2.409   1_545  S
O200        H256   0.991       .  S
O200        H264   0.990       .  S
O201        C221   1.282       .  A
O202        C223   1.284       .  A
O203       Zr213   2.521       .  S
O203        C222   1.300       .  A
O204       Zr212   2.368       .  S
O204        C223   1.274       .  A
O205        C222   1.290       .  A
O206       Zr214   2.383       .  S
O206        C221   1.267   1_565  A
O207       Zr212   2.383       .  S
O207       Zr214   2.385   1_545  S
O208       Zr213   2.346       .  S
O208       Zr214   2.378       .  S
O208        H243   0.965       .  S
O209       Zr212   2.398       .  S
O209       Zr229   2.392   1_545  S
O209        H246   0.965       .  S
O210       Zr213   2.368       .  S
O210       Zr229   2.422       .  S
Zr211       O236   2.444       .  S
Zr211       O230   2.424       .  S
Zr211       O238   2.406       .  S
Zr211       O226   2.518       .  S
Zr211       O217   2.419       .  S
Zr211       O218   2.379       .  S
Zr211       O219   2.364       .  S
Zr211       O220   2.420       .  S
Zr212       O231   2.436       .  S
Zr212       O224   2.436       .  S
Zr212       O225   2.407       .  S
Zr212       O218   2.383   1_545  S
Zr212       O219   2.366   1_545  S
Zr213       O215   2.433       .  S
Zr213       O237   2.438       .  S
Zr213       O239   2.371       .  S
Zr213       O217   2.421       .  S
Zr213       O220   2.415       .  S
Zr214       O240   2.435       .  S
Zr214       O241   2.438       .  S
Zr214       O216   2.438       .  S
Zr214       O217   2.363       .  S
Zr214       O218   2.385       .  S
O215        H252   0.991       .  S
O216        H247   0.990       .  S
O216        H261   0.990   1_565  S
O218        H244   0.968       .  S
O219       Zr229   2.378       .  S
O220       Zr229   2.360       .  S
O220        H245   0.967       .  S
C221       C1444   1.446       .  S
C222       C1516   1.533       .  S
C223       C1504   1.453       .  S
O224        H260   0.990       .  S
O225        C227   1.279   1_545  A
O226        C227   1.300       .  A
C227       C1453   1.501       .  S
O228       Zr229   2.441   1_545  S
O228        H257   0.990       .  S
Zr229       O232   2.438   1_565  S
Zr229       O233   2.445       .  S
Zr229       O234   2.446       .  S
O230        C235   1.283       .  A
O231        H248   0.991       .  S
O231        H263   0.990       .  S
O232        H249   0.991       .  S
O233        H253   0.990       .  S
O233        H262   0.990       .  S
O234        C235   1.288       .  A
C235       C1528   1.482       .  S
O236        H255   0.990       .  S
O236        H259   0.988       .  S
O237        H251   0.990       .  S
O237        H258   0.991       .  S
O238        C242   1.280       .  A
O239        C242   1.276       .  A
O240        H250   0.991       .  S
O241        H254   0.990       .  S
C242       C1492   1.429       .  S
Zr265       O266   2.438       .  S
Zr265       O267   2.430       .  S
Zr265       O268   2.436       .  S
Zr265       O271   2.450       .  S
Zr265       O273   2.388       .  S
Zr265       O274   2.375       .  S
Zr265       O275   2.415       .  S
Zr265       O276   2.407       .  S
O266        H322   0.991       .  S
O266        H330   0.991       .  S
O267        C287   1.285       .  A
O268        C289   1.284       .  A
O269       Zr279   2.536       .  S
O269        C288   1.303       .  A
O270       Zr278   2.385       .  S
O270        C289   1.275       .  A
O271        C288   1.287       .  A
O272       Zr280   2.361       .  S
O272        C287   1.268       .  A
O273       Zr278   2.388       .  S
O273       Zr280   2.383       .  S
O274       Zr279   2.356       .  S
O274       Zr280   2.388       .  S
O274        H309   0.964       .  S
O275       Zr278   2.398       .  S
O275       Zr295   2.392       .  S
O275        H312   0.967       .  S
O276       Zr279   2.374       .  S
O276       Zr295   2.422       .  S
Zr277       O302   2.445       .  S
Zr277       O296   2.410       .  S
Zr277       O304   2.424       .  S
Zr277       O292   2.511       .  S
Zr277       O283   2.408       .  S
Zr277       O284   2.382       .  S
Zr277       O285   2.369       .  S
Zr277       O286   2.424       .  S
Zr278       O297   2.436       .  S
Zr278       O290   2.436       .  S
Zr278       O291   2.415       .  S
Zr278       O284   2.384       .  S
Zr278       O285   2.372       .  S
Zr279       O281   2.434       .  S
Zr279       O303   2.439       .  S
Zr279       O305   2.405       .  S
Zr279       O283   2.420       .  S
Zr279       O286   2.419       .  S
Zr280       O306   2.435       .  S
Zr280       O307   2.439       .  S
Zr280       O282   2.440       .  S
Zr280       O283   2.349       .  S
Zr280       O284   2.379       .  S
O281        H318   0.991       .  S
O282        H313   0.991       .  S
O282        H327   0.990       .  S
O284        H310   0.968       .  S
O285       Zr295   2.377       .  S
O286       Zr295   2.367       .  S
O286        H311   0.967       .  S
C287       C1465   1.447       .  S
C288       C1393   1.537       .  S
C289       C1429   1.447       .  S
O290        H326   0.991       .  S
O291        C293   1.281       .  A
O292        C293   1.299       .  A
C293       C1456   1.505       .  S
O294       Zr295   2.441       .  S
O294        H323   0.991       .  S
Zr295       O298   2.438       .  S
Zr295       O299   2.442       .  S
Zr295       O300   2.449       .  S
O296        C301   1.281       .  A
O297        H314   0.991       .  S
O297        H329   0.990       .  S
O298        H315   0.991       .  S
O299        H319   0.990       .  S
O299        H328   0.989       .  S
O300        C301   1.288       .  A
C301       C1405   1.484       .  S
O302        H321   0.990       .  S
O302        H325   0.990       .  S
O303        H317   0.990       .  S
O303        H324   0.991       .  S
O304        C308   1.280       .  A
O305        C308   1.275       .  A
O306        H316   0.991       .  S
O307        H320   0.991       .  S
C308       C1417   1.435       .  S
Zr331       O332   2.437       .  S
Zr331       O333   2.422       .  S
Zr331       O334   2.460       .  S
Zr331       O337   2.481       .  S
Zr331       O339   2.392       .  S
Zr331       O340   2.384       .  S
Zr331       O341   2.418       .  S
Zr331       O342   2.417       .  S
O332        H388   0.990       .  S
O332        H396   0.991       .  S
O333        C353   1.280       .  A
O334        C355   1.291       .  A
O335       Zr345   2.502       .  S
O335        C354   1.296       .  A
O336       Zr344   2.367       .  S
O336        C355   1.271       .  A
O337        C354   1.293       .  A
O338       Zr346   2.384       .  S
O338        C353   1.271       .  A
O339       Zr344   2.383       .  S
O339       Zr346   2.385       .  S
O340       Zr345   2.357       .  S
O340       Zr346   2.369       .  S
O340        H375   0.965       .  S
O341       Zr344   2.396       .  S
O341       Zr361   2.399       .  S
O341        H378   0.968       .  S
O342       Zr345   2.372       .  S
O342       Zr361   2.423       .  S
Zr343       O368   2.438       .  S
Zr343       O362   2.415       .  S
Zr343       O370   2.418       .  S
Zr343       O358   2.511       .  S
Zr343       O349   2.414       .  S
Zr343       O350   2.381       .  S
Zr343       O351   2.365       .  S
Zr343       O352   2.416       .  S
Zr344       O363   2.438       .  S
Zr344       O356   2.434       .  S
Zr344       O357   2.394       .  S
Zr344       O350   2.385       .  S
Zr344       O351   2.368       .  S
Zr345       O347   2.433       .  S
Zr345       O369   2.439       .  S
Zr345       O371   2.378       .  S
Zr345       O349   2.418       .  S
Zr345       O352   2.412       .  S
Zr346       O372   2.435       .  S
Zr346       O373   2.435       .  S
Zr346       O348   2.436       .  S
Zr346       O349   2.361       .  S
Zr346       O350   2.382       .  S
O347        H384   0.991       .  S
O348        H379   0.991       .  S
O348        H393   0.988       .  S
O350        H376   0.967       .  S
O351       Zr361   2.375       .  S
O352       Zr361   2.368       .  S
O352        H377   0.967       .  S
C353       C1441   1.445       .  S
C354       C1384   1.520       .  S
C355       C1432   1.473       .  S
O356        H392   0.990       .  S
O357        C359   1.277       .  A
O358        C359   1.297       .  A
C359       C1480   1.498       .  S
O360       Zr361   2.441       .  S
O360        H389   0.991       .  S
Zr361       O364   2.438       .  S
Zr361       O365   2.444       .  S
Zr361       O366   2.451       .  S
O362        C367   1.279       .  A
O363        H380   0.990       .  S
O363        H395   0.991       .  S
O364        H381   0.991       .  S
O365        H385   0.991       .  S
O365        H394   0.989       .  S
O366        C367   1.288       .  A
C367       C1369   1.483       .  S
O368        H387   0.991       .  S
O368        H391   0.991       .  S
O369        H383   0.990       .  S
O369        H390   0.991       .  S
O370        C374   1.282       .  A
O371        C374   1.276       .  A
O372        H382   0.991       .  S
O373        H386   0.991       .  S
C374       C1420   1.443       .  S
Zr397       O398   2.437       .  S
Zr397       O399   2.430       .  S
Zr397       O400   2.435       .  S
Zr397       O403   2.459       .  S
Zr397       O405   2.387       .  S
Zr397       O406   2.380       .  S
Zr397       O407   2.417       .  S
Zr397       O408   2.414       .  S
O398        H454   0.991       .  S
O398        H462   0.991       .  S
O399        C419   1.282       .  A
O400        C421   1.284       .  A
O401       Zr411   2.517       .  S
O401        C420   1.300       .  A
O402       Zr410   2.398       .  S
O402        C421   1.277       .  A
O403        C420   1.289       .  A
O404       Zr412   2.378       .  S
O404        C419   1.270       .  A
O405       Zr410   2.386       .  S
O405       Zr412   2.390       .  S
O406       Zr411   2.364       .  S
O406       Zr412   2.368       .  S
O406        H441   0.965       .  S
O407       Zr410   2.397       .  S
O407       Zr427   2.392       .  S
O407        H444   0.965       .  S
O408       Zr411   2.377       .  S
O408       Zr427   2.427       .  S
Zr409       O434   2.445       .  S
Zr409       O428   2.409       .  S
Zr409       O436   2.392       .  S
Zr409       O424   2.486       .  S
Zr409       O415   2.409       .  S
Zr409       O416   2.376       .  S
Zr409       O417   2.366       .  S
Zr409       O418   2.408       .  S
Zr410       O429   2.437       .  S
Zr410       O422   2.435       .  S
Zr410       O423   2.410       .  S
Zr410       O416   2.391       .  S
Zr410       O417   2.375       .  S
Zr411       O413   2.434       .  S
Zr411       O435   2.437       .  S
Zr411       O437   2.406       .  S
Zr411       O415   2.417       .  S
Zr411       O418   2.412       .  S
Zr412       O438   2.435       .  S
Zr412       O439   2.436       .  S
Zr412       O414   2.437       .  S
Zr412       O415   2.363       .  S
Zr412       O416   2.377       .  S
O413        H450   0.990       .  S
O414        H445   0.990       .  S
O414        H459   0.989       .  S
O416        H442   0.967       .  S
O417       Zr427   2.372       .  S
O418       Zr427   2.357       .  S
O418        H443   0.969       .  S
C419       C1333   1.445       .  S
C420       C1381   1.523       .  S
C421       C1357   1.451       .  S
O422        H458   0.990       .  S
O423        C425   1.280       .  A
O424        C425   1.293       .  A
C425       C1321   1.487       .  S
O426       Zr427   2.441       .  S
O426        H455   0.991       .  S
Zr427       O430   2.437       .  S
Zr427       O431   2.444       .  S
Zr427       O432   2.462       .  S
O428        C433   1.279       .  A
O429        H446   0.991       .  S
O429        H461   0.990       .  S
O430        H447   0.991       .  S
O431        H451   0.991       .  S
O431        H460   0.990       .  S
O432        C433   1.291       .  A
C433       C1372   1.493       .  S
O434        H453   0.991       .  S
O434        H457   0.990       .  S
O435        H449   0.990       .  S
O435        H456   0.991       .  S
O436        C440   1.279       .  A
O437        C440   1.283       .  A
O438        H448   0.991       .  S
O439        H452   0.991       .  S
C440       C1348   1.441       .  S
Zr463       O464   2.436       .  S
Zr463       O465   2.414       .  S
Zr463       O466   2.450       .  S
Zr463       O469   2.474       .  S
Zr463       O471   2.389       .  S
Zr463       O472   2.380       .  S
Zr463       O473   2.417       .  S
Zr463       O474   2.408       .  S
O464        H520   0.991       .  S
O464        H528   0.991       .  S
O465        C485   1.280       .  A
O466        C487   1.289       .  A
O467       Zr477   2.501       .  S
O467        C486   1.296       .  A
O468       Zr476   2.378       .  S
O468        C487   1.274       .  A
O469        C486   1.294       .  A
O470       Zr478   2.376       .  S
O470        C485   1.274       .  A
O471       Zr476   2.387       .  S
O471       Zr478   2.374       .  S
O472       Zr477   2.378       .  S
O472       Zr478   2.376       .  S
O472        H507   0.965       .  S
O473       Zr476   2.399       .  S
O473       Zr493   2.398       .  S
O473        H510   0.968       .  S
O474       Zr477   2.382       .  S
O474       Zr493   2.423       .  S
Zr475       O500   2.441       .  S
Zr475       O494   2.409       .  S
Zr475       O502   2.393       .  S
Zr475       O490   2.474       .  S
Zr475       O481   2.409       .  S
Zr475       O482   2.385       .  S
Zr475       O483   2.366       .  S
Zr475       O484   2.417       .  S
Zr476       O495   2.437       .  S
Zr476       O488   2.433       .  S
Zr476       O489   2.417       .  S
Zr476       O482   2.385       .  S
Zr476       O483   2.365       .  S
Zr477       O479   2.435       .  S
Zr477       O501   2.438       .  S
Zr477       O503   2.410       .  S
Zr477       O481   2.408       .  S
Zr477       O484   2.414       .  S
Zr478       O504   2.435       .  S
Zr478       O505   2.436       .  S
Zr478       O480   2.437       .  S
Zr478       O481   2.353       .  S
Zr478       O482   2.382       .  S
O479        H516   0.991       .  S
O480        H511   0.991       .  S
O480        H525   0.990       .  S
O482        H508   0.968       .  S
O483       Zr493   2.374       .  S
O484       Zr493   2.369       .  S
O484        H509   0.967       .  S
C485       C1300   1.439       .  S
C486       C1396   1.534       .  S
C487       C1360   1.473       .  S
O488        H524   0.990       .  S
O489        C491   1.282       .  A
O490        C491   1.291       .  A
C491       C1312   1.487       .  S
O492       Zr493   2.441       .  S
O492        H521   0.991       .  S
Zr493       O496   2.438       .  S
Zr493       O497   2.443       .  S
Zr493       O498   2.454       .  S
O494        C499   1.281       .  A
O495        H512   0.990       .  S
O495        H527   0.991       .  S
O496        H513   0.991       .  S
O497        H517   0.990       .  S
O497        H526   0.990       .  S
O498        C499   1.288       .  A
C499       C1408   1.485       .  S
O500        H519   0.991       .  S
O500        H523   0.990       .  S
O501        H515   0.990       .  S
O501        H522   0.991       .  S
O502        C506   1.274       .  A
O503        C506   1.274       .  A
O504        H514   0.990       .  S
O505        H518   0.991       .  S
C506       C1345   1.430       .  S
Zr529       O530   2.439       .  S
Zr529       O531   2.461       .  S
Zr529       O532   2.458       .  S
Zr529       O535   2.455       .  S
Zr529       O537   2.380       .  S
Zr529       O538   2.375       .  S
Zr529       O539   2.420       .  S
Zr529       O540   2.427       .  S
O530        H586   0.991       .  S
O530        H594   0.991       .  S
O531        C551   1.291       .  A
O532        C553   1.290       .  A
O533       Zr543   2.510       .  S
O533        C552   1.298       .  A
O534       Zr542   2.414       .  S
O534        C553   1.281       .  A
O535        C552   1.289       .  A
O536       Zr544   2.353       .  S
O536        C551   1.265       .  A
O537       Zr542   2.393       .  S
O537       Zr544   2.387       .  S
O538       Zr543   2.369       .  S
O538       Zr544   2.389       .  S
O538        H573   0.967       .  S
O539       Zr542   2.392       .  S
O539       Zr559   2.406       .  S
O539        H576   0.966       .  S
O540       Zr543   2.377       .  S
O540       Zr559   2.437       .  S
Zr541       O566   2.442       .  S
Zr541       O560   2.417       .  S
Zr541       O568   2.434       .  S
Zr541       O556   2.488       .  S
Zr541       O547   2.435       .  S
Zr541       O548   2.385       .  S
Zr541       O549   2.379       .  S
Zr541       O550   2.453       .  S
Zr542       O561   2.436       .  S
Zr542       O554   2.434       .  S
Zr542       O555   2.404       .  S
Zr542       O548   2.398       .  S
Zr542       O549   2.387       .  S
Zr543       O545   2.426       .  S
Zr543       O567   2.432       .  S
Zr543       O569   2.364       .  S
Zr543       O547   2.428       .  S
Zr543       O550   2.438       .  S
Zr544       O570   2.438       .  S
Zr544       O571   2.440       .  S
Zr544       O546   2.440       .  S
Zr544       O547   2.351       .  S
Zr544       O548   2.367       .  S
O545        H582   0.990       .  S
O546        H577   0.989       .  S
O546        H591   0.991       .  S
O548        H574   0.966       .  S
O549       Zr559   2.379       .  S
O550       Zr559   2.363       .  S
O550        H575   0.970       .  S
C551       C1609   1.461       .  S
C552       C1249   1.528       .  S
C553       C1288   1.486       .  S
O554        H590   0.990       .  S
O555        C557   1.279       .  A
O556        C557   1.292       .  A
C557       C1552   1.481       .  S
O558       Zr559   2.439       .  S
O558        H587   0.991       .  S
Zr559       O562   2.436       .  S
Zr559       O563   2.442       .  S
Zr559       O564   2.473       .  S
O560        C565   1.280       .  A
O561        H578   0.990       .  S
O561        H593   0.990       .  S
O562        H579   0.991       .  S
O563        H583   0.990       .  S
O563        H592   0.989       .  S
O564        C565   1.291       .  A
C565       C1261   1.493       .  S
O566        H585   0.992       .  S
O566        H589   0.990       .  S
O567        H581   0.990       .  S
O567        H588   0.991       .  S
O568        C572   1.258       .  A
O569        C572   1.255       .  A
O570        H580   0.991       .  S
O571        H584   0.990       .  S
C572       C1273   1.449       .  S
Zr595       O596   2.436       .  S
Zr595       O597   2.415       .  S
Zr595       O598   2.452       .  S
Zr595       O601   2.450       .  S
Zr595       O603   2.386       .  S
Zr595       O604   2.384       .  S
Zr595       O605   2.411       .  S
Zr595       O606   2.411       .  S
O596        H652   0.991       .  S
O596        H660   0.991       .  S
O597        C617   1.282       .  A
O598        C619   1.288       .  A
O599       Zr609   2.512       .  S
O599        C618   1.299       .  A
O600       Zr608   2.414       .  S
O600        C619   1.280       .  A
O601        C618   1.288       .  A
O602       Zr610   2.381       .  S
O602        C617   1.269       .  A
O603       Zr608   2.384       .  S
O603       Zr610   2.387       .  S
O604       Zr609   2.353       .  S
O604       Zr610   2.370       .  S
O604        H639   0.964       .  S
O605       Zr608   2.396       .  S
O605       Zr625   2.403       .  S
O605        H642   0.967       .  S
O606       Zr609   2.375       .  S
O606       Zr625   2.419       .  S
Zr607       O632   2.438       .  S
Zr607       O626   2.427       .  S
Zr607       O634   2.436       .  S
Zr607       O622   2.479       .  S
Zr607       O613   2.413       .  S
Zr607       O614   2.390       .  S
Zr607       O615   2.373       .  S
Zr607       O616   2.408       .  S
Zr608       O627   2.435       .  S
Zr608       O620   2.435       .  S
Zr608       O621   2.420       .  S
Zr608       O614   2.394       .  S
Zr608       O615   2.378       .  S
Zr609       O611   2.434       .  S
Zr609       O633   2.438       .  S
Zr609       O635   2.391       .  S
Zr609       O613   2.421       .  S
Zr609       O616   2.413       .  S
Zr610       O636   2.435       .  S
Zr610       O637   2.439       .  S
Zr610       O612   2.439       .  S
Zr610       O613   2.371       .  S
Zr610       O614   2.376       .  S
O611        H648   0.991       .  S
O612        H643   0.991       .  S
O612        H657   0.990       .  S
O614        H640   0.967       .  S
O615       Zr625   2.375       .  S
O616       Zr625   2.371       .  S
O616        H641   0.968       .  S
C617       C1540   1.446       .  S
C618       C1240   1.514       .  S
C619       C1285   1.470       .  S
O620        H656   0.991       .  S
O621        C623   1.282       .  A
O622        C623   1.292       .  A
C623       C1621   1.488       .  S
O624       Zr625   2.441       .  S
O624        H653   0.991       .  S
Zr625       O628   2.437       .  S
Zr625       O629   2.444       .  S
Zr625       O630   2.449       .  S
O626        C631   1.282       .  A
O627        H644   0.990       .  S
O627        H659   0.991       .  S
O628        H645   0.991       .  S
O629        H649   0.990       .  S
O629        H658   0.990       .  S
O630        C631   1.288       .  A
C631       C1228   1.491       .  S
O632        H651   0.990       .  S
O632        H655   0.991       .  S
O633        H647   0.990       .  S
O633        H654   0.991       .  S
O634        C638   1.284       .  A
O635        C638   1.278       .  A
O636        H646   0.991       .  S
O637        H650   0.991       .  S
C638       C1276   1.452       .  S
Zr661       O662   2.436       .  S
Zr661       O663   2.454   1_556  S
Zr661       O664   2.485       .  S
Zr661       O667   2.468       .  S
Zr661       O669   2.390   1_556  S
Zr661       O670   2.382       .  S
Zr661       O671   2.419       .  S
Zr661       O672   2.426       .  S
O662        H718   0.990       .  S
O662        H726   0.990       .  S
O663        C683   1.289       .  A
O664        C685   1.294       .  A
O665       Zr675   2.487       .  S
O665        C684   1.293       .  A
O666       Zr674   2.350       .  S
O666        C685   1.270   1_554  A
O667        C684   1.290       .  A
O668       Zr676   2.385       .  S
O668        C683   1.277       .  A
O669       Zr674   2.389       .  S
O669       Zr676   2.385       .  S
O670       Zr675   2.357       .  S
O670       Zr676   2.364   1_556  S
O670        H705   0.964       .  S
O671       Zr674   2.388   1_556  S
O671       Zr691   2.399       .  S
O671        H708   0.966       .  S
O672       Zr675   2.372       .  S
O672       Zr691   2.429       .  S
Zr673       O698   2.439   1_556  S
Zr673       O692   2.425       .  S
Zr673       O700   2.410       .  S
Zr673       O688   2.500   1_556  S
Zr673       O679   2.413   1_556  S
Zr673       O680   2.387   1_556  S
Zr673       O681   2.365       .  S
Zr673       O682   2.409       .  S
Zr674       O693   2.437   1_554  S
Zr674       O686   2.434       .  S
Zr674       O687   2.380       .  S
Zr674       O680   2.380       .  S
Zr674       O681   2.373   1_554  S
Zr675       O677   2.434       .  S
Zr675       O699   2.439       .  S
Zr675       O701   2.375       .  S
Zr675       O679   2.414   1_556  S
Zr675       O682   2.408       .  S
Zr676       O702   2.435       .  S
Zr676       O703   2.440       .  S
Zr676       O678   2.438       .  S
Zr676       O679   2.374       .  S
Zr676       O680   2.368       .  S
O677        H714   0.990       .  S
O678        H709   0.991       .  S
O678        H723   0.990       .  S
O680        H706   0.967       .  S
O681       Zr691   2.379       .  S
O682       Zr691   2.367       .  S
O682        H707   0.968       .  S
C683       C1180   1.486       .  S
C684       C1237   1.508       .  S
C685       C1213   1.473       .  S
O686        H722   0.990       .  S
O687        C689   1.274       .  A
O688        C689   1.294       .  A
C689       C1189   1.475       .  S
O690       Zr691   2.441       .  S
O690        H719   0.991       .  S
Zr691       O694   2.438       .  S
Zr691       O695   2.444       .  S
Zr691       O696   2.457       .  S
O692        C697   1.282       .  A
O693        H710   0.991   1_556  S
O693        H725   0.990       .  S
O694        H711   0.991       .  S
O695        H715   0.991       .  S
O695        H724   0.990       .  S
O696        C697   1.288       .  A
C697       C1225   1.492       .  S
O698        H717   0.991       .  S
O698        H721   0.991       .  S
O699        H713   0.990       .  S
O699        H720   0.991       .  S
O700        C704   1.281       .  A
O701        C704   1.275       .  A
O702        H712   0.991       .  S
O703        H716   0.991       .  S
C704       C1204   1.442       .  S
Zr727       O728   2.438       .  S
Zr727       O729   2.454   1_556  S
Zr727       O730   2.472       .  S
Zr727       O733   2.469       .  S
Zr727       O735   2.392   1_556  S
Zr727       O736   2.377   1_556  S
Zr727       O737   2.420       .  S
Zr727       O738   2.418       .  S
O728        H784   0.991       .  S
O728        H792   0.991       .  S
O729        C749   1.290       .  A
O730        C751   1.291       .  A
O731       Zr741   2.490       .  S
O731        C750   1.294       .  A
O732       Zr740   2.354       .  S
O732        C751   1.270   1_554  A
O733        C750   1.292       .  A
O734       Zr742   2.388       .  S
O734        C749   1.275       .  A
O735       Zr740   2.392       .  S
O735       Zr742   2.386       .  S
O736       Zr741   2.352   1_554  S
O736       Zr742   2.374       .  S
O736        H771   0.965       .  S
O737       Zr740   2.391   1_556  S
O737       Zr757   2.400       .  S
O737        H774   0.968       .  S
O738       Zr741   2.373       .  S
O738       Zr757   2.429       .  S
Zr739       O764   2.448       .  S
Zr739       O758   2.433   1_554  S
Zr739       O766   2.416   1_554  S
Zr739       O754   2.483       .  S
Zr739       O745   2.411       .  S
Zr739       O746   2.389       .  S
Zr739       O747   2.367   1_554  S
Zr739       O748   2.409   1_554  S
Zr740       O759   2.437   1_554  S
Zr740       O752   2.435       .  S
Zr740       O753   2.386       .  S
Zr740       O746   2.378       .  S
Zr740       O747   2.366   1_554  S
Zr741       O743   2.434       .  S
Zr741       O765   2.438       .  S
Zr741       O767   2.374       .  S
Zr741       O745   2.412   1_556  S
Zr741       O748   2.407       .  S
Zr742       O768   2.437       .  S
Zr742       O769   2.443       .  S
Zr742       O744   2.438       .  S
Zr742       O745   2.375       .  S
Zr742       O746   2.371       .  S
O743        H780   0.991       .  S
O744        H775   0.991       .  S
O744        H789   0.990       .  S
O746        H772   0.967       .  S
O747       Zr757   2.370       .  S
O748       Zr757   2.364       .  S
O748        H773   0.967       .  S
C749       C1165   1.483       .  S
C750       C1252   1.521       .  S
C751       C1216   1.454       .  S
O752        H788   0.991       .  S
O753        C755   1.276       .  A
O754        C755   1.291       .  A
C755       C1153   1.472       .  S
O756       Zr757   2.441       .  S
O756        H785   0.991       .  S
Zr757       O760   2.438       .  S
Zr757       O761   2.445       .  S
Zr757       O762   2.465       .  S
O758        C763   1.283       .  A
O759        H776   0.990   1_556  S
O759        H791   0.990       .  S
O760        H777   0.991       .  S
O761        H781   0.990       .  S
O761        H790   0.990       .  S
O762        C763   1.292       .  A
C763       C1264   1.504       .  S
O764        H783   0.991       .  S
O764        H787   0.990       .  S
O765        H779   0.990       .  S
O765        H786   0.991       .  S
O766        C770   1.281       .  A
O767        C770   1.275       .  A
O768        H778   0.990       .  S
O769        H782   0.991       .  S
C770       C1201   1.431       .  S
Zr793       O794   2.438       .  S
Zr793       O795   2.433       .  S
Zr793       O796   2.443       .  S
Zr793       O799   2.449       .  S
Zr793       O801   2.385       .  S
Zr793       O802   2.378       .  S
Zr793       O803   2.412       .  S
Zr793       O804   2.412       .  S
O794        H850   0.991       .  S
O794        H858   0.991       .  S
O795        C815   1.285       .  A
O796        C817   1.287       .  A
O797       Zr807   2.502       .  S
O797        C816   1.296       .  A
O798       Zr806   2.405       .  S
O798        C817   1.279       .  A
O799        C816   1.287       .  A
O800       Zr808   2.379       .  S
O800        C815   1.268       .  A
O801       Zr806   2.383       .  S
O801       Zr808   2.388       .  S
O802       Zr807   2.361       .  S
O802       Zr808   2.375       .  S
O802        H837   0.965       .  S
O803       Zr806   2.397       .  S
O803       Zr823   2.400       .  S
O803        H840   0.966       .  S
O804       Zr807   2.376       .  S
O804       Zr823   2.421       .  S
Zr805       O830   2.447       .  S
Zr805       O824   2.430       .  S
Zr805       O832   2.430       .  S
Zr805       O820   2.489       .  S
Zr805       O811   2.408       .  S
Zr805       O812   2.392       .  S
Zr805       O813   2.371       .  S
Zr805       O814   2.413       .  S
Zr806       O825   2.436       .  S
Zr806       O818   2.435       .  S
Zr806       O819   2.406       .  S
Zr806       O812   2.397       .  S
Zr806       O813   2.376       .  S
Zr807       O809   2.433       .  S
Zr807       O831   2.438       .  S
Zr807       O833   2.384       .  S
Zr807       O811   2.414       .  S
Zr807       O814   2.416       .  S
Zr808       O834   2.435       .  S
Zr808       O835   2.438       .  S
Zr808       O810   2.439       .  S
Zr808       O811   2.365       .  S
Zr808       O812   2.381       .  S
O809        H846   0.991       .  S
O810        H841   0.990       .  S
O810        H855   0.990       .  S
O812        H838   0.968       .  S
O813       Zr823   2.368       .  S
O814       Zr823   2.367       .  S
O814        H839   0.967       .  S
C815       C1297   1.452       .  S
C816       C1105   1.524       .  S
C817       C1144   1.470       .  S
O818        H854   0.990       .  S
O819        C821   1.279       .  A
O820        C821   1.293       .  A
C821       C1324   1.484       .  S
O822       Zr823   2.439       .  S
O822        H851   0.991       .  S
Zr823       O826   2.437       .  S
Zr823       O827   2.442       .  S
Zr823       O828   2.452       .  S
O824        C829   1.283       .  A
O825        H842   0.991       .  S
O825        H857   0.990       .  S
O826        H843   0.991       .  S
O827        H847   0.990       .  S
O827        H856   0.989       .  S
O828        C829   1.289       .  A
C829       C1117   1.498       .  S
O830        H849   0.991       .  S
O830        H853   0.989       .  S
O831        H845   0.990       .  S
O831        H852   0.991       .  S
O832        C836   1.286       .  A
O833        C836   1.278       .  A
O834        H844   0.991       .  S
O835        H848   0.990       .  S
C836       C1132   1.452       .  S
Zr859       O860   2.437       .  S
Zr859       O861   2.428       .  S
Zr859       O862   2.441       .  S
Zr859       O865   2.448       .  S
Zr859       O867   2.384       .  S
Zr859       O868   2.376       .  S
Zr859       O869   2.413       .  S
Zr859       O870   2.408       .  S
O860        H916   0.991       .  S
O860        H924   0.990       .  S
O861        C881   1.284       .  A
O862        C883   1.286       .  A
O863       Zr873   2.502       .  S
O863        C882   1.296   1_545  A
O864       Zr872   2.405       .  S
O864        C883   1.279       .  A
O865        C882   1.289       .  A
O866       Zr874   2.375       .  S
O866        C881   1.271       .  A
O867       Zr872   2.384       .  S
O867       Zr874   2.377       .  S
O868       Zr873   2.370   1_565  S
O868       Zr874   2.380       .  S
O868        H903   0.966       .  S
O869       Zr872   2.399       .  S
O869       Zr889   2.400       .  S
O869        H906   0.966       .  S
O870       Zr873   2.378   1_565  S
O870       Zr889   2.421       .  S
Zr871       O896   2.452       .  S
Zr871       O890   2.450       .  S
Zr871       O898   2.445       .  S
Zr871       O886   2.481   1_545  S
Zr871       O877   2.414       .  S
Zr871       O878   2.407   1_545  S
Zr871       O879   2.373   1_545  S
Zr871       O880   2.424       .  S
Zr872       O891   2.435       .  S
Zr872       O884   2.436       .  S
Zr872       O885   2.415       .  S
Zr872       O878   2.395       .  S
Zr872       O879   2.372       .  S
Zr873       O875   2.436       .  S
Zr873       O897   2.439       .  S
Zr873       O899   2.401       .  S
Zr873       O877   2.408       .  S
Zr873       O880   2.421       .  S
Zr874       O900   2.436   1_565  S
Zr874       O901   2.436   1_565  S
Zr874       O876   2.438       .  S
Zr874       O877   2.349   1_565  S
Zr874       O878   2.380       .  S
O875        H912   0.990       .  S
O876        H907   0.991       .  S
O876        H921   0.991       .  S
O878        H904   0.967       .  S
O879       Zr889   2.371       .  S
O880       Zr889   2.373   1_545  S
O880        H905   0.968       .  S
C881       C1336   1.450       .  S
C882       C1084   1.525       .  S
C883       C1141   1.461       .  S
O884        H920   0.990       .  S
O885        C887   1.281       .  A
O886        C887   1.292       .  A
C887       C1309   1.482       .  S
O888       Zr889   2.441       .  S
O888        H917   0.990       .  S
Zr889       O892   2.438       .  S
Zr889       O893   2.444   1_565  S
Zr889       O894   2.451       .  S
O890        C895   1.287       .  A
O891        H908   0.991       .  S
O891        H923   0.990       .  S
O892        H909   0.991       .  S
O893        H913   0.990       .  S
O893        H922   0.990       .  S
O894        C895   1.288   1_565  A
C895       C1093   1.489       .  S
O896        H915   0.990       .  S
O896        H919   0.990       .  S
O897        H911   0.989       .  S
O897        H918   0.991       .  S
O898        C902   1.279       .  A
O899        C902   1.270       .  A
O900        H910   0.991       .  S
O901        H914   0.990       .  S
C902       C1129   1.447       .  S
Zr925       O926   2.442       .  S
Zr925       O927   2.476       .  S
Zr925       O928   2.437       .  S
Zr925       O931   2.426       .  S
Zr925       O933   2.385       .  S
Zr925       O934   2.384       .  S
Zr925       O935   2.426       .  S
Zr925       O936   2.405       .  S
O926        H982   0.990       .  S
O926        H990   0.991       .  S
O927        C947   1.290       .  A
O928        C949   1.283       .  A
O929       Zr939   2.405       .  S
O929        C948   1.281       .  A
O930       Zr938   2.380   1_655  S
O930        C949   1.275       .  A
O931        C948   1.280       .  A
O932       Zr940   2.470       .  S
O932        C947   1.292       .  A
O933       Zr938   2.411   1_655  S
O933       Zr940   2.369       .  S
O934       Zr939   2.378       .  S
O934       Zr940   2.379       .  S
O934        H969   0.966       .  S
O935       Zr938   2.410   1_655  S
O935       Zr955   2.402   1_655  S
O935        H972   0.967   1_655  S
O936       Zr939   2.377       .  S
O936       Zr955   2.380   1_655  S
Zr937       O962   2.441       .  S
Zr937       O956   2.457       .  S
Zr937       O964   2.438       .  S
Zr937       O952   2.437       .  S
Zr937       O943   2.406   1_455  S
Zr937       O944   2.413       .  S
Zr937       O945   2.364       .  S
Zr937       O946   2.380       .  S
Zr938       O957   2.441       .  S
Zr938       O950   2.434       .  S
Zr938       O951   2.453       .  S
Zr938       O944   2.381       .  S
Zr938       O945   2.367       .  S
Zr939       O941   2.436       .  S
Zr939       O963   2.440       .  S
Zr939       O965   2.405       .  S
Zr939       O943   2.383       .  S
Zr939       O946   2.378   1_655  S
Zr940       O966   2.435       .  S
Zr940       O967   2.439       .  S
Zr940       O942   2.440       .  S
Zr940       O943   2.407       .  S
Zr940       O944   2.431   1_655  S
O941        H978   0.991       .  S
O942        H973   0.990       .  S
O942        H987   0.991       .  S
O944        H970   0.967       .  S
O945       Zr955   2.363       .  S
O946       Zr955   2.384       .  S
O946        H971   0.969       .  S
C947       C1108   1.527       .  S
C948       C1168   1.452       .  S
C949       C1057   1.455       .  S
O950        H986   0.990       .  S
O951        C953   1.288       .  A
O952        C953   1.283       .  A
C953       C1120   1.509       .  S
O954       Zr955   2.440       .  S
O954        H983   0.990       .  S
Zr955       O958   2.436       .  S
Zr955       O959   2.442       .  S
Zr955       O960   2.428       .  S
O956        C961   1.291       .  A
O957        H974   0.991       .  S
O957        H989   0.991       .  S
O958        H975   0.990       .  S
O959        H979   0.990       .  S
O959        H988   0.990       .  S
O960        C961   1.282       .  A
C961       C1192   1.506       .  S
O962        H981   0.989       .  S
O962        H985   0.990       .  S
O963        H977   0.991       .  S
O963        H984   0.990       .  S
O964        C968   1.286   1_455  A
O965        C968   1.279       .  A
O966        H976   0.991       .  S
O967        H980   0.991       .  S
C968       C1069   1.464       .  S
Zr991       O992   2.442       .  S
Zr991       O993   2.472       .  S
Zr991       O994   2.424       .  S
Zr991       O997   2.432       .  S
Zr991       O999   2.390       .  S
Zr991      O1000   2.385   1_545  S
Zr991      O1001   2.442   1_455  S
Zr991      O1002   2.402   1_545  S
O992       H1048   0.990       .  S
O992       H1056   0.991       .  S
O993       C1013   1.290   1_545  A
O994       C1015   1.279       .  A
O995      Zr1005   2.411       .  S
O995       C1014   1.281       .  A
O996      Zr1004   2.395   1_455  S
O996       C1015   1.270       .  A
O997       C1014   1.282   1_545  A
O998      Zr1006   2.477       .  S
O998       C1013   1.292       .  A
O999      Zr1004   2.413   1_455  S
O999      Zr1006   2.362   1_545  S
O1000     Zr1005   2.377       .  S
O1000     Zr1006   2.381       .  S
O1000      H1035   0.966       .  S
O1001     Zr1004   2.416       .  S
O1001     Zr1021   2.393       .  S
O1001      H1038   0.967       .  S
O1002     Zr1005   2.376       .  S
O1002     Zr1021   2.381   1_465  S
Zr1003     O1028   2.439       .  S
Zr1003     O1022   2.461       .  S
Zr1003     O1030   2.433       .  S
Zr1003     O1018   2.439       .  S
Zr1003     O1009   2.410   1_655  S
Zr1003     O1010   2.414       .  S
Zr1003     O1011   2.365       .  S
Zr1003     O1012   2.379       .  S
Zr1004     O1023   2.440       .  S
Zr1004     O1016   2.433       .  S
Zr1004     O1017   2.457       .  S
Zr1004     O1010   2.382   1_545  S
Zr1004     O1011   2.370   1_545  S
Zr1005     O1007   2.435       .  S
Zr1005     O1029   2.438       .  S
Zr1005     O1031   2.405       .  S
Zr1005     O1009   2.384       .  S
Zr1005     O1012   2.380   1_455  S
Zr1006     O1032   2.434       .  S
Zr1006     O1033   2.440       .  S
Zr1006     O1008   2.440       .  S
Zr1006     O1009   2.409       .  S
Zr1006     O1010   2.433   1_455  S
O1007      H1044   0.991       .  S
O1008      H1039   0.990       .  S
O1008      H1053   0.991   1_565  S
O1010      H1036   0.968       .  S
O1011     Zr1021   2.365   1_565  S
O1012     Zr1021   2.382   1_565  S
O1012      H1037   0.968       .  S
C1013      C1081   1.523       .  S
C1014      C1177   1.452       .  S
C1015      C1060   1.461       .  S
O1016      H1052   0.990       .  S
O1017      C1019   1.290   1_545  A
O1018      C1019   1.286       .  A
C1019      C1096   1.505       .  S
O1020     Zr1021   2.440       .  S
O1020      H1049   0.990       .  S
Zr1021     O1024   2.437       .  S
Zr1021     O1025   2.443   1_545  S
Zr1021     O1026   2.417   1_545  S
O1022      C1027   1.290       .  A
O1023      H1040   0.990       .  S
O1023      H1055   0.990       .  S
O1024      H1041   0.991       .  S
O1025      H1045   0.990       .  S
O1025      H1054   0.990       .  S
O1026      C1027   1.282       .  A
C1027      C1156   1.500       .  S
O1028      H1047   0.990       .  S
O1028      H1051   0.990       .  S
O1029      H1043   0.990       .  S
O1029      H1050   0.990       .  S
O1030      C1034   1.284       .  A
O1031      C1034   1.279   1_455  A
O1032      H1042   0.991       .  S
O1033      H1046   0.991   1_455  S
C1034      C1072   1.461       .  S
C1057      C1058   1.402       .  A
C1057      C1062   1.408       .  A
C1058      C1059   1.392       .  A
C1058      H1067   1.084       .  S
C1059      C1060   1.410   1_655  A
C1059      S1063   1.803   1_655  S
C1060      C1061   1.404       .  A
C1061      C1062   1.393   1_455  A
C1061      H1068   1.083       .  S
C1062      S1064   1.809       .  S
S1063      H1066   1.407       .  S
S1064      H1065   1.407       .  S
C1069      C1070   1.403       .  A
C1069      C1074   1.412       .  A
C1070      C1071   1.397       .  A
C1070      H1079   1.084       .  S
C1071      C1072   1.409       .  A
C1071      S1075   1.804       .  S
C1072      C1073   1.400       .  A
C1073      C1074   1.396       .  A
C1073      H1080   1.084       .  S
C1074      S1076   1.803       .  S
S1075      H1078   1.406       .  S
S1076      H1077   1.406       .  S
C1081      C1082   1.414   1_565  A
C1081      C1086   1.422       .  A
C1082      C1083   1.419       .  A
C1082      H1091   1.083       .  S
C1083      C1084   1.423   1_545  A
C1083      S1087   1.800       .  S
C1084      C1085   1.411       .  A
C1085      C1086   1.409       .  A
C1085      H1092   1.083       .  S
C1086      S1088   1.800       .  S
S1087      H1090   1.407       .  S
S1088      H1089   1.408       .  S
C1093      C1094   1.402   1_545  A
C1093      C1098   1.414       .  A
C1094      C1095   1.400       .  A
C1094      H1103   1.085       .  S
C1095      C1096   1.420       .  A
C1095      S1099   1.799       .  S
C1096      C1097   1.413   1_565  A
C1097      C1098   1.411       .  A
C1097      H1104   1.083       .  S
C1098      S1100   1.803       .  S
S1099      H1102   1.407       .  S
S1100      H1101   1.406       .  S
C1105      C1106   1.412       .  A
C1105      C1110   1.425       .  A
C1106      C1107   1.421       .  A
C1106      H1115   1.083       .  S
C1107      C1108   1.427       .  A
C1107      S1111   1.800       .  S
C1108      C1109   1.409       .  A
C1109      C1110   1.408       .  A
C1109      H1116   1.083       .  S
C1110      S1112   1.803       .  S
S1111      H1114   1.407       .  S
S1112      H1113   1.403       .  S
C1117      C1118   1.403       .  A
C1117      C1122   1.418       .  A
C1118      C1119   1.398       .  A
C1118      H1127   1.084       .  S
C1119      C1120   1.424       .  A
C1119      S1123   1.798       .  S
C1120      C1121   1.412       .  A
C1121      C1122   1.410       .  A
C1121      H1128   1.083       .  S
C1122      S1124   1.802       .  S
S1123      H1126   1.403       .  S
S1124      H1125   1.407       .  S
C1129      C1130   1.397       .  A
C1129      C1134   1.408       .  A
C1130      C1131   1.392       .  A
C1130      H1139   1.084       .  S
C1131      C1132   1.411       .  A
C1131      S1135   1.804       .  S
C1132      C1133   1.400       .  A
C1133      C1134   1.394       .  A
C1133      H1140   1.083       .  S
C1134      S1136   1.809       .  S
S1135      H1138   1.407       .  S
S1136      H1137   1.407       .  S
C1141      C1142   1.399       .  A
C1141      C1146   1.411       .  A
C1142      C1143   1.395       .  A
C1142      H1151   1.085       .  S
C1143      C1144   1.415       .  A
C1143      S1147   1.805       .  S
C1144      C1145   1.403       .  A
C1145      C1146   1.398       .  A
C1145      H1152   1.084       .  S
C1146      S1148   1.804       .  S
S1147      H1150   1.405       .  S
S1148      H1149   1.402       .  S
C1153      C1154   1.406       .  A
C1153      C1158   1.410       .  A
C1154      C1155   1.411       .  A
C1154      H1163   1.083       .  S
C1155      C1156   1.417       .  A
C1155      S1159   1.806       .  S
C1156      C1157   1.411       .  A
C1157      C1158   1.397       .  A
C1157      H1164   1.083       .  S
C1158      S1160   1.808       .  S
S1159      H1162   1.407       .  S
S1160      H1161   1.402       .  S
C1165      C1166   1.404       .  A
C1165      C1170   1.427       .  A
C1166      C1167   1.395       .  A
C1166      H1175   1.083       .  S
C1167      C1168   1.404       .  A
C1167      S1171   1.800       .  S
C1168      C1169   1.393       .  A
C1169      C1170   1.397       .  A
C1169      H1176   1.084       .  S
C1170      S1172   1.811       .  S
S1171      H1174   1.408       .  S
S1172      H1173   1.407       .  S
C1177      C1178   1.402       .  A
C1177      C1182   1.402       .  A
C1178      C1179   1.399       .  A
C1178      H1187   1.084       .  S
C1179      C1180   1.413       .  A
C1179      S1183   1.800       .  S
C1180      C1181   1.413       .  A
C1181      C1182   1.390       .  A
C1181      H1188   1.083       .  S
C1182      S1184   1.805       .  S
S1183      H1186   1.409   1_554  S
S1184      H1185   1.407       .  S
C1189      C1190   1.400       .  A
C1189      C1194   1.410       .  A
C1190      C1191   1.404       .  A
C1190      H1199   1.082       .  S
C1191      C1192   1.425       .  A
C1191      S1195   1.801       .  S
C1192      C1193   1.408       .  A
C1193      C1194   1.405       .  A
C1193      H1200   1.082       .  S
C1194      S1196   1.806       .  S
S1195      H1198   1.408       .  S
S1196      H1197   1.407       .  S
C1201      C1202   1.396       .  A
C1201      C1206   1.403   1_556  A
C1202      C1203   1.384       .  A
C1202      H1211   1.085       .  S
C1203      C1204   1.409       .  A
C1203      S1207   1.806       .  S
C1204      C1205   1.400   1_556  A
C1205      C1206   1.391       .  A
C1205      H1212   1.083       .  S
C1206      S1208   1.807       .  S
S1207      H1210   1.407       .  S
S1208      H1209   1.407       .  S
C1213      C1214   1.409   1_556  A
C1213      C1218   1.412       .  A
C1214      C1215   1.392   1_455  A
C1214      H1223   1.085       .  S
C1215      C1216   1.405   1_554  A
C1215      S1219   1.806       .  S
C1216      C1217   1.405       .  A
C1217      C1218   1.402   1_655  A
C1217      H1224   1.084       .  S
C1218      S1220   1.799       .  S
S1219      H1222   1.407       .  S
S1220      H1221   1.405       .  S
C1225      C1226   1.404       .  A
C1225      C1230   1.420       .  A
C1226      C1227   1.405       .  A
C1226      H1235   1.084       .  S
C1227      C1228   1.420       .  A
C1227      S1231   1.799       .  S
C1228      C1229   1.402       .  A
C1229      C1230   1.401       .  A
C1229      H1236   1.084       .  S
C1230      S1232   1.800       .  S
S1231      H1234   1.407       .  S
S1232      H1233   1.407       .  S
C1237      C1238   1.411       .  A
C1237      C1242   1.414       .  A
C1238      C1239   1.418   1_565  A
C1238      H1247   1.084       .  S
C1239      C1240   1.419       .  A
C1239      S1243   1.801       .  S
C1240      C1241   1.412   1_545  A
C1241      C1242   1.414       .  A
C1241      H1248   1.082   1_565  S
C1242      S1244   1.803       .  S
S1243      H1246   1.402       .  S
S1244      H1245   1.406       .  S
C1249      C1250   1.414       .  A
C1249      C1254   1.421       .  A
C1250      C1251   1.415       .  A
C1250      H1259   1.084       .  S
C1251      C1252   1.418       .  A
C1251      S1255   1.803       .  S
C1252      C1253   1.413       .  A
C1253      C1254   1.426       .  A
C1253      H1260   1.082       .  S
C1254      S1256   1.805       .  S
S1255      H1258   1.407       .  S
S1256      H1257   1.407       .  S
C1261      C1262   1.402   1_545  A
C1261      C1266   1.416   1_545  A
C1262      C1263   1.413       .  A
C1262      H1271   1.082   1_565  S
C1263      C1264   1.426       .  A
C1263      S1267   1.809   1_556  S
C1264      C1265   1.405       .  A
C1265      C1266   1.401       .  A
C1265      H1272   1.084       .  S
C1266      S1268   1.797       .  S
S1267      H1270   1.406       .  S
S1268      H1269   1.407       .  S
C1273      C1274   1.397       .  A
C1273      C1278   1.405       .  A
C1274      C1275   1.390       .  A
C1274      H1283   1.084       .  S
C1275      C1276   1.408       .  A
C1275      S1279   1.796       .  S
C1276      C1277   1.401       .  A
C1277      C1278   1.389       .  A
C1277      H1284   1.084       .  S
C1278      S1280   1.806       .  S
S1279      H1282   1.405       .  S
S1280      H1281   1.406       .  S
C1285      C1286   1.399       .  A
C1285      C1290   1.411       .  A
C1286      C1287   1.400   1_455  A
C1286      H1295   1.084       .  S
C1287      C1288   1.420       .  A
C1287      S1291   1.803       .  S
C1288      C1289   1.406       .  A
C1289      C1290   1.401   1_655  A
C1289      H1296   1.084       .  S
C1290      S1292   1.804       .  S
S1291      H1294   1.407       .  S
S1292      H1293   1.405       .  S
C1297      C1298   1.398       .  A
C1297      C1302   1.415       .  A
C1298      C1299   1.382       .  A
C1298      H1307   1.084       .  S
C1299      C1300   1.404       .  A
C1299      S1303   1.800       .  S
C1300      C1301   1.399       .  A
C1301      C1302   1.394       .  A
C1301      H1308   1.084       .  S
C1302      S1304   1.804       .  S
S1303      H1306   1.405       .  S
S1304      H1305   1.401       .  S
C1309      C1310   1.404       .  A
C1309      C1314   1.413       .  A
C1310      C1311   1.405       .  A
C1310      H1319   1.084       .  S
C1311      C1312   1.416       .  A
C1311      S1315   1.804       .  S
C1312      C1313   1.405       .  A
C1313      C1314   1.406       .  A
C1313      H1320   1.084       .  S
C1314      S1316   1.802       .  S
S1315      H1318   1.407       .  S
S1316      H1317   1.407       .  S
C1321      C1322   1.405       .  A
C1321      C1326   1.419       .  A
C1322      C1323   1.407       .  A
C1322      H1331   1.084       .  S
C1323      C1324   1.414       .  A
C1323      S1327   1.804       .  S
C1324      C1325   1.402       .  A
C1325      C1326   1.405       .  A
C1325      H1332   1.084       .  S
C1326      S1328   1.807       .  S
S1327      H1330   1.407       .  S
S1328      H1329   1.401       .  S
C1333      C1334   1.399       .  A
C1333      C1338   1.412       .  A
C1334      C1335   1.391       .  A
C1334      H1343   1.085       .  S
C1335      C1336   1.412       .  A
C1335      S1339   1.805       .  S
C1336      C1337   1.397       .  A
C1337      C1338   1.387       .  A
C1337      H1344   1.085       .  S
C1338      S1340   1.804       .  S
S1339      H1342   1.407       .  S
S1340      H1341   1.398       .  S
C1345      C1346   1.397       .  A
C1345      C1350   1.403       .  A
C1346      C1347   1.386   1_655  A
C1346      H1355   1.085       .  S
C1347      C1348   1.407       .  A
C1347      S1351   1.804       .  S
C1348      C1349   1.401       .  A
C1349      C1350   1.384   1_455  A
C1349      H1356   1.083       .  S
C1350      S1352   1.806       .  S
S1351      H1354   1.407       .  S
S1352      H1353   1.406       .  S
C1357      C1358   1.390       .  A
C1357      C1362   1.409       .  A
C1358      C1359   1.387       .  A
C1358      H1367   1.082       .  S
C1359      C1360   1.422       .  A
C1359      S1363   1.805       .  S
C1360      C1361   1.404       .  A
C1361      C1362   1.397       .  A
C1361      H1368   1.084       .  S
C1362      S1364   1.802       .  S
S1363      H1366   1.402       .  S
S1364      H1365   1.406       .  S
C1369      C1370   1.399       .  A
C1369      C1374   1.416       .  A
C1370      C1371   1.401       .  A
C1370      H1379   1.084       .  S
C1371      C1372   1.425       .  A
C1371      S1375   1.799       .  S
C1372      C1373   1.403       .  A
C1373      C1374   1.399       .  A
C1373      H1380   1.084       .  S
C1374      S1376   1.797       .  S
S1375      H1378   1.398       .  S
S1376      H1377   1.407       .  S
C1381      C1382   1.413       .  A
C1381      C1386   1.420       .  A
C1382      C1383   1.419       .  A
C1382      H1391   1.084       .  S
C1383      C1384   1.418   1_565  A
C1383      S1387   1.803   1_565  S
C1384      C1385   1.412   1_545  A
C1385      C1386   1.421       .  A
C1385      H1392   1.084       .  S
C1386      S1388   1.800       .  S
S1387      H1390   1.405       .  S
S1388      H1389   1.403       .  S
C1393      C1394   1.414       .  A
C1393      C1398   1.429       .  A
C1394      C1395   1.426       .  A
C1394      H1403   1.083       .  S
C1395      C1396   1.428       .  A
C1395      S1399   1.799       .  S
C1396      C1397   1.407       .  A
C1397      C1398   1.412       .  A
C1397      H1404   1.084       .  S
C1398      S1400   1.800       .  S
S1399      H1402   1.407       .  S
S1400      H1401   1.401       .  S
C1405      C1406   1.409   1_545  A
C1405      C1410   1.412   1_545  A
C1406      C1407   1.400       .  A
C1406      H1415   1.084       .  S
C1407      C1408   1.412       .  A
C1407      S1411   1.801       .  S
C1408      C1409   1.409       .  A
C1409      C1410   1.398       .  A
C1409      H1416   1.084       .  S
C1410      S1412   1.802   1_565  S
S1411      H1414   1.407       .  S
S1412      H1413   1.407       .  S
C1417      C1418   1.399       .  A
C1417      C1422   1.403       .  A
C1418      C1419   1.394   1_655  A
C1418      H1427   1.083       .  S
C1419      C1420   1.407       .  A
C1419      S1423   1.807       .  S
C1420      C1421   1.400       .  A
C1421      C1422   1.383   1_455  A
C1421      H1428   1.085       .  S
C1422      S1424   1.803       .  S
S1423      H1426   1.407       .  S
S1424      H1425   1.405       .  S
C1429      C1430   1.391       .  A
C1429      C1434   1.409       .  A
C1430      C1431   1.387       .  A
C1430      H1439   1.086       .  S
C1431      C1432   1.425       .  A
C1431      S1435   1.805       .  S
C1432      C1433   1.404       .  A
C1433      C1434   1.397       .  A
C1433      H1440   1.084       .  S
C1434      S1436   1.803       .  S
S1435      H1438   1.399       .  S
S1436      H1437   1.406       .  S
C1441      C1442   1.401       .  A
C1441      C1446   1.407       .  A
C1442      C1443   1.389       .  A
C1442      H1451   1.085       .  S
C1443      C1444   1.411       .  A
C1443      S1447   1.805   1_545  S
C1444      C1445   1.398       .  A
C1445      C1446   1.384       .  A
C1445      H1452   1.085       .  S
C1446      S1448   1.798       .  S
S1447      H1450   1.407       .  S
S1448      H1449   1.406       .  S
C1453      C1454   1.410   1_565  A
C1453      C1458   1.415       .  A
C1454      C1455   1.414       .  A
C1454      H1463   1.084       .  S
C1455      C1456   1.416       .  A
C1455      S1459   1.796       .  S
C1456      C1457   1.409       .  A
C1457      C1458   1.410   1_545  A
C1457      H1464   1.084       .  S
C1458      S1460   1.797       .  S
S1459      H1462   1.406       .  S
S1460      H1461   1.403       .  S
C1465      C1466   1.395       .  A
C1465      C1470   1.415       .  A
C1466      C1467   1.383       .  A
C1466      H1475   1.085       .  S
C1467      C1468   1.410       .  A
C1467      S1471   1.799       .  S
C1468      C1469   1.396       .  A
C1469      C1470   1.387       .  A
C1469      H1476   1.085       .  S
C1470      S1472   1.806       .  S
S1471      H1474   1.399       .  S
S1472      H1473   1.404       .  S
C1477      C1478   1.409       .  A
C1477      C1482   1.410       .  A
C1478      C1479   1.412       .  A
C1478      H1487   1.084       .  S
C1479      C1480   1.415       .  A
C1479      S1483   1.800       .  S
C1480      C1481   1.411       .  A
C1481      C1482   1.410       .  A
C1481      H1488   1.083       .  S
C1482      S1484   1.807       .  S
S1483      H1486   1.404       .  S
S1484      H1485   1.407       .  S
C1489      C1490   1.397       .  A
C1489      C1494   1.405       .  A
C1490      C1491   1.380       .  A
C1490      H1499   1.085       .  S
C1491      C1492   1.404       .  A
C1491      S1495   1.805       .  S
C1492      C1493   1.399       .  A
C1493      C1494   1.392       .  A
C1493      H1500   1.083       .  S
C1494      S1496   1.807       .  S
S1495      H1498   1.407       .  S
S1496      H1497   1.407       .  S
C1501      C1502   1.403       .  A
C1501      C1506   1.404       .  A
C1502      C1503   1.398       .  A
C1502      H1511   1.084       .  S
C1503      C1504   1.410       .  A
C1503      S1507   1.801       .  S
C1504      C1505   1.400       .  A
C1505      C1506   1.381       .  A
C1505      H1512   1.085       .  S
C1506      S1508   1.792       .  S
S1507      H1510   1.406       .  S
S1508      H1509   1.406       .  S
C1513      C1514   1.413       .  A
C1513      C1518   1.429       .  A
C1514      C1515   1.415       .  A
C1514      H1523   1.083   1_565  S
C1515      C1516   1.423       .  A
C1515      S1519   1.800   1_565  S
C1516      C1517   1.413       .  A
C1517      C1518   1.425       .  A
C1517      H1524   1.083       .  S
C1518      S1520   1.799       .  S
S1519      H1522   1.407       .  S
S1520      H1521   1.407       .  S
C1525      C1526   1.406       .  A
C1525      C1530   1.413       .  A
C1526      C1527   1.407       .  A
C1526      H1535   1.084       .  S
C1527      C1528   1.416       .  A
C1527      S1531   1.803       .  S
C1528      C1529   1.402       .  A
C1529      C1530   1.395       .  A
C1529      H1536   1.084       .  S
C1530      S1532   1.802   1_565  S
S1531      H1534   1.407       .  S
S1532      H1533   1.406   1_545  S
C1537      C1538   1.398       .  A
C1537      C1542   1.406       .  A
C1538      C1539   1.389       .  A
C1538      H1547   1.085       .  S
C1539      C1540   1.413       .  A
C1539      S1543   1.805       .  S
C1540      C1541   1.399       .  A
C1541      C1542   1.381       .  A
C1541      H1548   1.085       .  S
C1542      S1544   1.803       .  S
S1543      H1546   1.405       .  S
S1544      H1545   1.404       .  S
C1549      C1550   1.408   1_565  A
C1549      C1554   1.414       .  A
C1550      C1551   1.408       .  A
C1550      H1559   1.083       .  S
C1551      C1552   1.411       .  A
C1551      S1555   1.806       .  S
C1552      C1553   1.404   1_545  A
C1553      C1554   1.404       .  A
C1553      H1560   1.083       .  S
C1554      S1556   1.796       .  S
S1555      H1558   1.407       .  S
S1556      H1557   1.406       .  S
C1561      C1562   1.418       .  A
C1561      C1566   1.430       .  A
C1562      C1563   1.427       .  A
C1562      H1571   1.083       .  S
C1563      C1564   1.424       .  A
C1563      S1567   1.799       .  S
C1564      C1565   1.410       .  A
C1565      C1566   1.415       .  A
C1565      H1572   1.084       .  S
C1566      S1568   1.802       .  S
S1567      H1570   1.407       .  S
S1568      H1569   1.408       .  S
C1573      C1574   1.404       .  A
C1573      C1578   1.416       .  A
C1574      C1575   1.403       .  A
C1574      H1583   1.084       .  S
C1575      C1576   1.418       .  A
C1575      S1579   1.805       .  S
C1576      C1577   1.402       .  A
C1577      C1578   1.400       .  A
C1577      H1584   1.084       .  S
C1578      S1580   1.802       .  S
S1579      H1582   1.407       .  S
S1580      H1581   1.406       .  S
C1585      C1586   1.398       .  A
C1585      C1590   1.409   1_655  A
C1586      C1587   1.389   1_655  A
C1586      H1595   1.084       .  S
C1587      C1588   1.409       .  A
C1587      S1591   1.803   1_455  S
C1588      C1589   1.400       .  A
C1589      C1590   1.385       .  A
C1589      H1596   1.083       .  S
C1590      S1592   1.807       .  S
S1591      H1594   1.408   1_655  S
S1592      H1593   1.407   1_455  S
C1597      C1598   1.403       .  A
C1597      C1602   1.409       .  A
C1598      C1599   1.398       .  A
C1598      H1607   1.084       .  S
C1599      C1600   1.410       .  A
C1599      S1603   1.802       .  S
C1600      C1601   1.403       .  A
C1601      C1602   1.394       .  A
C1601      H1608   1.083       .  S
C1602      S1604   1.805       .  S
S1603      H1606   1.404       .  S
S1604      H1605   1.407       .  S
C1609      C1610   1.395       .  A
C1609      C1614   1.423       .  A
C1610      C1611   1.388       .  A
C1610      H1619   1.084       .  S
C1611      C1612   1.419       .  A
C1611      S1615   1.800       .  S
C1612      C1613   1.392       .  A
C1613      C1614   1.388       .  A
C1613      H1620   1.083       .  S
C1614      S1616   1.809       .  S
S1615      H1618   1.407       .  S
S1616      H1617   1.407       .  S
C1621      C1622   1.406       .  A
C1621      C1626   1.413       .  A
C1622      C1623   1.407       .  A
C1622      H1631   1.084       .  S
C1623      C1624   1.413       .  A
C1623      S1627   1.797       .  S
C1624      C1625   1.406       .  A
C1625      C1626   1.406       .  A
C1625      H1632   1.084       .  S
C1626      S1628   1.800       .  S
S1627      H1630   1.405       .  S
S1628      H1629   1.404       .  S
