geometry optimzed in LAMMPS
_audit_creation_date              2020-12-01 
_audit_creation_method            'lammps2cif' 
_symmetry_space_group_name_H-M    'P1' 
_symmetry_Int_Tables_number       1 
_symmetry_cell_setting            triclinic 
loop_ 
_symmetry_equiv_pos_as_xyz 
  x,y,z 
_cell_length_a                    30.41286542 
_cell_length_b                    30.4030285526275 
_cell_length_c                    36.590412885421784 
_cell_angle_alpha                 90.00020759431531 
_cell_angle_beta                  89.9935038530671 
_cell_angle_gamma                 90.00075327022077 
loop_ 
_atom_site_label 
_atom_site_type_symbol 
_atom_site_fract_x 
_atom_site_fract_y 
_atom_site_fract_z 
_atom_site_charge 
O1          O  0.72944184  0.43774920  0.28848379    -0.80100
C2          C  0.69380376  0.49055512  0.42894036     0.99300
O3          O  0.72571608  0.48924090  0.40726913    -0.69200
O4          O  0.77161648  0.45107018  0.35629835    -0.72800
Al5        Al  0.72571698  0.49586938  0.35642013     1.49000
C6          C  0.76984548  0.40945188  0.35888344     0.94500
O7          O  0.64997865  0.37191018  0.34815029    -0.79000
O8          O  0.59454428  0.44477136  0.33222892    -0.72600
Al9        Al  0.68899242  0.41076263  0.32197172     1.90100
O10         O  0.62997703  0.41040341  0.39580409    -0.71600
O11         O  0.62228605  0.52255541  0.35262380    -0.71500
O12         O  0.65457197  0.48870419  0.41760852    -0.77100
O13         O  0.68906856  0.54871069  0.35860934    -0.75300
O14         O  0.68147273  0.45776501  0.35043231    -1.11500
O15         O  0.73172227  0.50679497  0.30561603    -0.70700
C16         C  0.73922401  0.47735485  0.28228790     1.00100
C17         C  0.63164905  0.37441978  0.37899110     0.96400
Al18       Al  0.62987854  0.46619756  0.37263425     1.55600
O19         O  0.73517706  0.38875644  0.35122720    -0.75300
C20         C  0.64828604  0.55456595  0.35345009     1.00600
C21         C  0.60426178  0.43427214  0.29969879     0.95500
O22         O  0.64355966  0.42824786  0.29010551    -0.80600
O23         O  0.83288838  0.42824892  0.04009028    -0.80100
C24         C  0.78259697  0.49052379  0.17892886     0.99300
O25         O  0.82182987  0.48870956  0.16758369    -0.69200
O26         O  0.84647204  0.41040739  0.14579301    -0.72800
Al27       Al  0.84653612  0.46619238  0.12261252     1.49000
C28         C  0.84484384  0.37442428  0.12897564     0.94500
O29         O  0.74129238  0.38865253  0.10121514    -0.79000
O30         O  0.74466630  0.50671136  0.05562455    -0.72600
Al31       Al  0.78746903  0.41071126  0.07195821     1.90100
O32         O  0.70481123  0.45093971  0.10630091    -0.71600
O33         O  0.78728803  0.54864912  0.10861937    -0.71500
O34         O  0.75068219  0.48913704  0.15727131    -0.77100
O35         O  0.85408352  0.52253939  0.10258070    -0.75300
O36         O  0.79494807  0.45771297  0.10042305    -1.11500
O37         O  0.88189156  0.44477674  0.08221141    -0.70700
C38         C  0.87218166  0.43428761  0.04968112     1.00100
C39         C  0.70660757  0.40932280  0.10888064     0.96400
Al40       Al  0.75067583  0.49577746  0.10642404     1.55600
O41         O  0.82652020  0.37189510  0.09813564    -0.75300
C42         C  0.82806674  0.55453416  0.10343738     1.00600
C43         C  0.73719038  0.47727631  0.03228779     0.95500
O44         O  0.74700025  0.43767329  0.03847405    -0.80600
O45         O  0.94056574  0.22659746  0.23641745    -0.80100
C46         C  0.99334807  0.19094010  0.09595802     0.99300
O47         O  0.99202801  0.22286677  0.11762166    -0.69200
O48         O  0.95385252  0.26877853  0.16858405    -0.72800
Al49       Al  0.99865857  0.22288595  0.16846946     1.49000
C50         C  0.91224790  0.26698797  0.16601026     0.94500
O51         O  0.87477086  0.14707046  0.17677809    -0.79000
O52         O  0.94763057  0.09165101  0.19270281    -0.72600
Al53       Al  0.91360084  0.18611835  0.20294254     1.90100
O54         O  0.91325457  0.12706523  0.12912361    -0.71600
O55         O  0.02538605  0.11943383  0.17228882    -0.71500
O56         O  0.99151991  0.15169679  0.10730114    -0.77100
O57         O  0.05149837  0.18625150  0.16628756    -0.75300
O58         O  0.96058729  0.17861076  0.17447524    -1.11500
O59         O  0.00958402  0.22891303  0.21926914    -0.70700
C60         C  0.98015459  0.23640115  0.24260350     1.00100
C61         C  0.87728248  0.12873339  0.14593906     0.96400
Al62       Al  0.96903690  0.12699717  0.15228526     1.55600
O63         O  0.89157609  0.23230211  0.17368236    -0.75300
C64         C  0.05737331  0.14546127  0.17146104     1.00600
C65         C  0.93712459  0.10137650  0.22522863     0.95500
O66         O  0.93110555  0.14068815  0.23481552    -0.80600
O67         O  0.93105377  0.33006807  0.48480241    -0.80100
C68         C  0.99331273  0.27976424  0.34596315     0.99300
O69         O  0.99151432  0.31900773  0.35731200    -0.69200
O70         O  0.91323957  0.34367773  0.37910029    -0.72800
Al71       Al  0.96900460  0.34371915  0.40228277     1.49000
C72         C  0.87726359  0.34205153  0.39591579     0.94500
O73         O  0.89144763  0.23846668  0.42368342    -0.79000
O74         O  0.00946269  0.24178528  0.46926218    -0.72600
Al75       Al  0.91351213  0.28464461  0.45293654     1.90100
O76         O  0.95370115  0.20195311  0.41858703    -0.71600
O77         O  0.05140641  0.28441171  0.41627807    -0.71500
O78         O  0.99190795  0.24783434  0.36761738    -0.77100
O79         O  0.02533842  0.35124168  0.42231785    -0.75300
O80         O  0.96050453  0.29211303  0.42447024    -1.11500
O81         O  0.94759710  0.37908761  0.44268186    -0.70700
C82         C  0.93709711  0.36937316  0.47521234     1.00100
C83         C  0.91209696  0.20376587  0.41601644     0.96400
Al84       Al  0.99853897  0.24781227  0.41846556     1.55600
O85         O  0.87472539  0.32372093  0.42675613    -0.75300
C86         C  0.05730731  0.32519661  0.42147087     1.00600
C87         C  0.98003432  0.23432213  0.49260472     0.95500
O88         O  0.94044988  0.24415084  0.48642281    -0.80600
O89         O  0.64354457  0.04248079  0.04011971    -0.80100
C90         C  0.69381606  0.98018288  0.17895016     0.99300
O91         O  0.65458410  0.98201210  0.16761226    -0.69200
O92         O  0.62995819  0.06031773  0.14582562    -0.72800
Al93       Al  0.62988513  0.00453312  0.12264423     1.49000
C94         C  0.63159229  0.09629905  0.12900916     0.94500
O95         O  0.73514085  0.08205882  0.10123584    -0.79000
O96         O  0.73175917  0.96400752  0.05563810    -0.72600
Al97       Al  0.68896427  0.06000875  0.07198356     1.90100
O98         O  0.77161267  0.01976668  0.10632031    -0.71600
O99         O  0.68911988  0.92206426  0.10862516    -0.71500
O100        O  0.72573109  0.98155934  0.15728750    -0.77100
O101        O  0.62232722  0.94818561  0.10261408    -0.75300
O102        O  0.68147617  0.01300476  0.10044686    -1.11500
O103        O  0.59453582  0.02595550  0.08224636    -0.70700
C104        C  0.60424913  0.03644537  0.04971580     1.00100
C105        C  0.76982040  0.06138403  0.10889929     0.96400
Al106      Al  0.72574209  0.97493240  0.10643873     1.55600
O107        O  0.64991730  0.09882795  0.09816629    -0.75300
C108        C  0.64834012  0.91618879  0.10345217     1.00600
C109        C  0.73923885  0.99344503  0.03230279     0.95500
O110        O  0.72943290  0.03304657  0.03849282    -0.80600
O111        O  0.74697706  0.03295227  0.28849292    -0.80100
C112        C  0.78261291  0.98015980  0.42894542     0.99300
O113        O  0.75069853  0.98148065  0.40728180    -0.69200
O114        O  0.70479704  0.01963873  0.35631399    -0.72800
Al115      Al  0.75069586  0.97484071  0.35643375     1.49000
C116        C  0.70657000  0.06125582  0.35889829     0.94500
O117        O  0.82643210  0.09879585  0.34814866    -0.79000
O118        O  0.88187208  0.02593335  0.33221312    -0.72600
Al119      Al  0.78742334  0.05994334  0.32197416     1.90100
O120        O  0.84644186  0.06029916  0.39579477    -0.71600
O121        O  0.85412400  0.94814576  0.35261054    -0.71500
O122        O  0.82184447  0.98199945  0.41760243    -0.77100
O123        O  0.78734043  0.92199840  0.35862625    -0.75300
O124        O  0.79494244  0.01294154  0.35043342    -1.11500
O125        O  0.74469082  0.96390786  0.30563084    -0.70700
C126        C  0.73719229  0.99334743  0.28230223     1.00100
C127        C  0.84476073  0.09628520  0.37898555     0.96400
Al128      Al  0.84653711  0.00450559  0.37262381     1.55600
O129        O  0.74123864  0.08194996  0.35123642    -0.75300
C130        C  0.82812171  0.91613657  0.35345704     1.00600
C131        C  0.87215545  0.03644030  0.29968736     0.95500
O132        O  0.83285807  0.04246204  0.29010006    -0.80600
O133        O  0.54535587  0.14065256  0.48483122    -0.80100
C134        C  0.48310341  0.19093494  0.34599468     0.99300
O135        O  0.48491132  0.15169172  0.35734169    -0.69200
O136        O  0.56318076  0.12703070  0.37912920    -0.72800
Al137      Al  0.50741253  0.12698317  0.40231453     1.49000
C138        C  0.59915168  0.12866100  0.39593925     0.94500
O139        O  0.58494842  0.23224717  0.42369339    -0.79000
O140        O  0.46693311  0.22891172  0.46930014    -0.72600
Al141      Al  0.56289135  0.18607221  0.45295688     1.90100
O142        O  0.52269018  0.26875386  0.41861214    -0.71600
O143        O  0.42499543  0.18627491  0.41631845    -0.71500
O144        O  0.48449079  0.22286455  0.36765130    -0.77100
O145        O  0.45107465  0.11944932  0.42234943    -0.75300
O146        O  0.51590053  0.17859195  0.42449921    -1.11500
O147        O  0.52881884  0.09162283  0.44271921    -0.70700
C148        C  0.53931981  0.10134400  0.47524563     1.00100
C149        C  0.56429606  0.26694495  0.41603015     0.96400
Al150      Al  0.47785808  0.22288551  0.41849988     1.55600
O151        O  0.60168609  0.14699709  0.42677889    -0.75300
C152        C  0.41909932  0.14548816  0.42150249     1.00600
C153        C  0.49636185  0.23638609  0.49263369     0.95500
O154        O  0.53594867  0.22656828  0.48644211    -0.80600
O155        O  0.53586099  0.24413783  0.23644700    -0.80100
C156        C  0.48307683  0.27977235  0.09599112     0.99300
O157        O  0.48440519  0.24784633  0.11765619    -0.69200
O158        O  0.52258126  0.20194559  0.16861886    -0.72800
Al159      Al  0.47777223  0.24783355  0.16850557     1.49000
C160        C  0.56418656  0.20374047  0.16604094     0.94500
O161        O  0.60165273  0.32365813  0.17678652    -0.79000
O162        O  0.52878623  0.37907790  0.19271976    -0.72600
Al163      Al  0.56282460  0.28461375  0.20296286     1.90100
O164        O  0.56316783  0.34365763  0.12913810    -0.71600
O165        O  0.45103135  0.35128346  0.17231959    -0.71500
O166        O  0.48490449  0.31901535  0.10733070    -0.77100
O167        O  0.42492938  0.28446113  0.16632515    -0.75300
O168        O  0.51583848  0.29211346  0.17450205    -1.11500
O169        O  0.46684430  0.24181058  0.21930832    -0.70700
C170        C  0.49627301  0.23432578  0.24263813     1.00100
C171        C  0.59914172  0.34198850  0.14594589     0.96400
Al172      Al  0.50738441  0.34372369  0.15230903     1.55600
O173        O  0.58485425  0.23842720  0.17370502    -0.75300
C174        C  0.41904687  0.32525315  0.17149248     1.00600
C175        C  0.53929448  0.36935605  0.22524570     0.95500
O176        O  0.54531608  0.33004719  0.23483292    -0.80600
O177        O  0.14353272  0.92821535  0.23486644    -0.80100
C178        C  0.19380079  0.99051527  0.09602678     0.99300
O179        O  0.15456956  0.98869884  0.10737722    -0.69200
O180        O  0.12994329  0.91039105  0.12916414    -0.72800
Al181      Al  0.12987267  0.96617279  0.15234899     1.49000
C182        C  0.13158280  0.87440695  0.14597729     0.94500
O183        O  0.23513151  0.88864993  0.17373366    -0.79000
O184        O  0.23174446  0.00670308  0.21932912    -0.72600
Al185      Al  0.18895422  0.91069527  0.20299401     1.90100
O186        O  0.27160327  0.95094281  0.16864812    -0.71600
O187        O  0.18911127  0.04863616  0.16633788    -0.71500
O188        O  0.22571893  0.98913022  0.11768213    -0.77100
O189        O  0.12231977  0.02251861  0.17238656    -0.75300
O190        O  0.18146456  0.95769892  0.17453337    -1.11500
O191        O  0.09452447  0.94474487  0.19275035    -0.70700
C192        C  0.10423667  0.93424904  0.22527906     1.00100
C193        C  0.26981247  0.90932416  0.16606802     0.96400
Al194      Al  0.22573116  0.99577038  0.16852936     1.55600
O195        O  0.14991182  0.87187581  0.17681485    -0.75300
C196        C  0.14833515  0.05451571  0.17152517     1.00600
C197        C  0.23922187  0.97726794  0.24266501     0.95500
O198        O  0.22941878  0.93766393  0.23647820    -0.80600
O199        O  0.24696242  0.93774166  0.48647732    -0.80100
C200        C  0.28259519  0.99054366  0.34601639     0.99300
O201        O  0.25068451  0.98922565  0.36768790    -0.69200
O202        O  0.20478657  0.95105039  0.41865919    -0.72800
Al203      Al  0.25068248  0.99585613  0.41853689     1.49000
C204        C  0.20656056  0.90943237  0.41607801     0.94500
O205        O  0.32642949  0.87190388  0.42681396    -0.79000
O206        O  0.38185990  0.94476605  0.44272918    -0.72600
Al207      Al  0.28741363  0.91075637  0.45299098     1.90100
O208        O  0.34642373  0.91039337  0.37915582    -0.71600
O209        O  0.35411383  0.02254999  0.42233172    -0.71500
O210        O  0.32182881  0.98869429  0.35734961    -0.77100
O211        O  0.28732961  0.04870114  0.41634697    -0.75300
O212        O  0.29492931  0.95775628  0.42452690    -1.11500
O213        O  0.24467376  0.00678494  0.46934018    -0.70700
C214        C  0.23717362  0.97734613  0.49267006     1.00100
C215        C  0.34475315  0.87441158  0.39596966     0.96400
Al216      Al  0.34652272  0.96619027  0.40232367     1.55600
O217        O  0.24123044  0.88874104  0.42373831    -0.75300
C218        C  0.32811220  0.05455993  0.42150503     1.00600
C219        C  0.37214270  0.93426787  0.47525990     0.95500
O220        O  0.33284541  0.92825089  0.48485529    -0.80600
O221        O  0.43105639  0.64063263  0.29013414    -0.80100
C222        C  0.49329602  0.69093104  0.42897005     0.99300
O223        O  0.49148841  0.65168785  0.41762342    -0.69200
O224        O  0.41321670  0.62702302  0.39583737    -0.72800
Al225      Al  0.46898724  0.62697598  0.37265299     1.49000
C226        C  0.37724463  0.62865166  0.37902422     0.94500
O227        O  0.39144504  0.73223287  0.35125746    -0.79000
O228        O  0.50946512  0.72891014  0.30566388    -0.72600
Al229      Al  0.41351104  0.68605440  0.32200165     1.90100
O230        O  0.45370099  0.76874299  0.35635053    -0.71600
O231        O  0.55140129  0.68627481  0.35864452    -0.71500
O232        O  0.49190431  0.72285993  0.40731270    -0.77100
O233        O  0.52532581  0.61944560  0.35261910    -0.75300
O234        O  0.46049846  0.67858265  0.35046426    -1.11500
O235        O  0.44758438  0.59160906  0.33225243    -0.70700
C236        C  0.43709065  0.60132511  0.29972407     1.00100
C237        C  0.41209582  0.76693174  0.35892556     0.96400
Al238      Al  0.49853743  0.72288043  0.35646378     1.55600
O239        O  0.37471467  0.64697879  0.34818283    -0.75300
C240        C  0.55729840  0.64548631  0.35346112     1.00600
C241        C  0.48004108  0.73637814  0.28232710     0.95500
O242        O  0.44045338  0.72654823  0.28851432    -0.80600
O243        O  0.44054715  0.74411178  0.03852462    -0.80100
C244        C  0.49333475  0.77976973  0.17897268     0.99300
O245        O  0.49200810  0.74784384  0.15730973    -0.69200
O246        O  0.45383676  0.70193074  0.10635074    -0.72800
Al247      Al  0.49864168  0.74782514  0.10646041     1.49000
C248        C  0.41223275  0.70372321  0.10893390     0.94500
O249        O  0.37475574  0.82363502  0.09817981    -0.79000
O250        O  0.44761892  0.87905911  0.08223329    -0.72600
Al251      Al  0.41358231  0.78459031  0.07200585     1.90100
O252        O  0.41324582  0.84364962  0.14582139    -0.71600
O253        O  0.52537655  0.85127628  0.10263236    -0.71500
O254        O  0.49150905  0.81901469  0.16762867    -0.77100
O255        O  0.55148369  0.78445933  0.10863930    -0.75300
O256        O  0.46057180  0.79210034  0.10046131    -1.11500
O257        O  0.50956718  0.74180027  0.05565763    -0.70700
C258        C  0.48013535  0.73430929  0.03232978     1.00100
C259        C  0.37727072  0.84197708  0.12901583     0.96400
Al260      Al  0.46902575  0.84371433  0.12264766     1.55600
O261        O  0.39156158  0.73840756  0.10127213    -0.75300
C262        C  0.55736290  0.82524884  0.10346695     1.00600
C263        C  0.43710452  0.86933132  0.04971088     0.95500
O264        O  0.43107956  0.83002143  0.04012757    -0.80600
O265        O  0.03586111  0.72656907  0.03855320    -0.80100
C266        C  0.98305980  0.69092670  0.17901397     0.99300
O267        O  0.98439598  0.72285297  0.15735228    -0.69200
O268        O  0.02257528  0.76875941  0.10638669    -0.72800
Al269      Al  0.97776674  0.72287230  0.10650332     1.49000
C270        C  0.06417997  0.76696677  0.10895859     0.94500
O271        O  0.10164273  0.64704808  0.09820666    -0.79000
O272        O  0.02877879  0.59162833  0.08227683    -0.72600
Al273      Al  0.06282165  0.68609321  0.07203371     1.90100
O274        O  0.06314802  0.62704314  0.14585623    -0.71600
O275        O  0.95102221  0.61942559  0.10267668    -0.71500
O276        O  0.98488096  0.65168222  0.16766919    -0.77100
O277        O  0.92492295  0.68624704  0.10868538    -0.75300
O278        O  0.01583149  0.67859217  0.10049870    -1.11500
O279        O  0.96684375  0.72889806  0.05570420    -0.70700
C280        C  0.99627320  0.73637950  0.03236824     1.00100
C281        C  0.09912362  0.62871116  0.12904430     0.96400
Al282      Al  0.00736998  0.62698027  0.12268827     1.55600
O283        O  0.08484790  0.73227862  0.10129057    -0.75300
C284        C  0.91903958  0.64545663  0.10350639     1.00600
C285        C  0.03929321  0.60135021  0.04974977     0.95500
O286        O  0.04531963  0.64065794  0.04016283    -0.80600
O287        O  0.04533885  0.83003258  0.29016634    -0.80100
C288        C  0.98308734  0.77975121  0.42901268     0.99300
O289        O  0.98489675  0.81899524  0.41766450    -0.69200
O290        O  0.06316966  0.84365180  0.39586729    -0.72800
Al291      Al  0.00740209  0.84370147  0.37268988     1.49000
C292        C  0.09914279  0.84202352  0.37904859     0.94500
O293        O  0.08493483  0.73843677  0.35129649    -0.79000
O294        O  0.96692030  0.74177045  0.30571054    -0.72600
Al295      Al  0.06287732  0.78461288  0.32203677     1.90100
O296        O  0.02267488  0.70193142  0.35639220    -0.71600
O297        O  0.92498194  0.78441093  0.35869286    -0.71500
O298        O  0.98447145  0.74782233  0.40735606    -0.77100
O299        O  0.95106725  0.85123594  0.35266290    -0.75300
O300        O  0.01588728  0.79209249  0.35050337    -1.11500
O301        O  0.02881071  0.87906194  0.33228369    -0.70700
C302        C  0.03930678  0.86934011  0.29975254     1.00100
C303        C  0.06427967  0.70374037  0.35896629     0.96400
Al304      Al  0.97784263  0.74779945  0.35650862     1.55600
O305        O  0.10167383  0.82369095  0.34820841    -0.75300
C306        C  0.91909182  0.82519927  0.35350576     1.00600
C307        C  0.99634636  0.73429716  0.28237204     0.95500
O308        O  0.03593563  0.74411593  0.28855645    -0.80600
O309        O  0.33286341  0.54247774  0.23485325    -0.80100
C310        C  0.28259173  0.48017214  0.09602530     0.99300
O311        O  0.32182422  0.48199763  0.10736522    -0.69200
O312        O  0.34645004  0.56030474  0.12914838    -0.72800
Al313      Al  0.34652232  0.50452259  0.15233181     1.49000
C314        C  0.34481454  0.59628672  0.14596460     0.94500
O315        O  0.24126214  0.58204143  0.17373885    -0.79000
O316        O  0.24465469  0.46399114  0.21933723    -0.72600
Al317      Al  0.28744130  0.55999828  0.20299035     1.90100
O318        O  0.20479319  0.51974627  0.16866061    -0.71600
O319        O  0.28728911  0.42205410  0.16634423    -0.71500
O320        O  0.25067627  0.48155138  0.11768797    -0.77100
O321        O  0.35407965  0.44817823  0.17236582    -0.75300
O322        O  0.29493128  0.51299387  0.17452834    -1.11500
O323        O  0.38187055  0.52594727  0.19272675    -0.70700
C324        C  0.37215835  0.53643773  0.22525784     1.00100
C325        C  0.20658341  0.56136494  0.16608058     0.96400
Al326      Al  0.25066672  0.47491903  0.16853645     1.55600
O327        O  0.32648490  0.59881860  0.17680418    -0.75300
C328        C  0.32806849  0.41617981  0.17152161     1.00600
C329        C  0.23717438  0.49342871  0.24267345     0.95500
O330        O  0.24697642  0.53303099  0.23648319    -0.80600
O331        O  0.22942692  0.53293624  0.48648426    -0.80100
C332        C  0.19379520  0.48014124  0.34603009     0.99300
O333        O  0.22570805  0.48146083  0.36769521    -0.69200
O334        O  0.27160215  0.51963459  0.41866032    -0.72800
Al335      Al  0.22571167  0.47482504  0.41854313     1.49000
C336        C  0.26982172  0.56125279  0.41607851     0.94500
O337        O  0.14994860  0.59876772  0.42684088    -0.79000
O338        O  0.09452877  0.52589400  0.44276765    -0.72600
Al339      Al  0.18897114  0.55991837  0.45300776     1.90100
O340        O  0.12995222  0.56027726  0.37918772    -0.71600
O341        O  0.12228663  0.44811602  0.42235768    -0.71500
O342        O  0.15456302  0.48198355  0.35737102    -0.77100
O343        O  0.18907425  0.42197641  0.41635321    -0.75300
O344        O  0.18145976  0.51291880  0.42454408    -1.11500
O345        O  0.23172106  0.46389310  0.46934567    -0.70700
C346        C  0.23921786  0.49333116  0.49267439     1.00100
C347        C  0.13162161  0.59625934  0.39600330     0.96400
Al348      Al  0.12986618  0.50447880  0.40235236     1.55600
O349        O  0.23515127  0.58193973  0.42374438    -0.75300
C350        C  0.14829155  0.41611133  0.42151717     1.00600
C351        C  0.10424500  0.53639589  0.47529496     0.95500
O352        O  0.14354407  0.54241762  0.48488192    -0.80600
C353        C  0.21718395  0.48247673  0.27700820    -0.11500
C354        C  0.20326048  0.47851262  0.30767166    -0.13100
C355        C  0.25921455  0.48239217  0.02700435    -0.11500
C356        C  0.27313826  0.47847877  0.05766961    -0.13100
C357        C  0.08881502  0.66561274  0.37050651    -0.11500
C358        C  0.10968656  0.63425293  0.38110779    -0.13100
C359        C  0.13710143  0.60676506  0.14394397    -0.11500
C360        C  0.16845480  0.58589301  0.15454484    -0.13100
C361        C  0.07044870  0.54736778  0.50109467    -0.11500
C362        C  0.05027196  0.56754157  0.02395498    -0.13100
C363        C  0.98143619  0.70038258  0.21737416    -0.11500
C364        C  0.98540305  0.71430196  0.24803852    -0.13100
C365        C  0.98533619  0.75637834  0.99803622    -0.11500
C366        C  0.98141003  0.77030028  0.46737045    -0.13100
C367        C  0.38770538  0.66558906  0.12047406    -0.11500
C368        C  0.36680238  0.63425231  0.13107075    -0.13100
C369        C  0.33928811  0.60666845  0.39392720    -0.11500
C370        C  0.30795055  0.58577510  0.40453317    -0.13100
C371        C  0.40595998  0.54736888  0.25105681    -0.11500
C372        C  0.42613522  0.56751968  0.27392591    -0.13100
C373        C  0.49495316  0.77031040  0.21733202    -0.11500
C374        C  0.49098461  0.75638194  0.24799536    -0.13100
C375        C  0.49498485  0.70038530  0.46732777    -0.11500
C376        C  0.49107046  0.71430808  0.99799496    -0.13100
C377        C  0.13709528  0.86401299  0.39394182    -0.11500
C378        C  0.16843219  0.88491174  0.40454113    -0.13100
C379        C  0.36668315  0.83641732  0.38106973    -0.11500
C380        C  0.38755609  0.80505657  0.37046532    -0.13100
C381        C  0.40594180  0.92329936  0.50105383    -0.11500
C382        C  0.42612053  0.90313468  0.02391172    -0.13100
C383        C  0.08870657  0.80509692  0.12049127    -0.11500
C384        C  0.10960518  0.83644089  0.13108577    -0.13100
C385        C  0.07043694  0.92330322  0.25108096    -0.11500
C386        C  0.05026377  0.90314461  0.27395219    -0.13100
C387        C  0.21717649  0.98828750  0.02700237    -0.11500
C388        C  0.20325229  0.99220498  0.05766970    -0.13100
C389        C  0.27313128  0.99217856  0.30765974    -0.11500
C390        C  0.25920991  0.98821894  0.27699762    -0.13100
C391        C  0.33929266  0.86392119  0.14391884    -0.11500
C392        C  0.30793728  0.88479513  0.15452551    -0.13100
C393        C  0.37565566  0.34458638  0.17451498    -0.11500
C394        C  0.34742163  0.37278600  0.17452507    -0.13100
C395        C  0.37570394  0.12615774  0.42451456    -0.11500
C396        C  0.34747867  0.09795037  0.42451516    -0.13100
C397        C  0.48541755  0.25638406  0.02696881    -0.11500
C398        C  0.48145335  0.27030721  0.05763149    -0.13100
C399        C  0.48142000  0.20039019  0.30763601    -0.11500
C400        C  0.48533814  0.21431870  0.27697141    -0.13100
C401        C  0.84748238  0.87274326  0.35046329    -0.11500
C402        C  0.87570019  0.84452946  0.35048078    -0.13100
C403        C  0.66843944  0.08577223  0.37043983    -0.11500
C404        C  0.63710388  0.10667065  0.38104216    -0.13100
C405        C  0.62898552  0.87279206  0.10044416    -0.11500
C406        C  0.60075511  0.84459134  0.10044910    -0.13100
C407        C  0.60961297  0.13426699  0.14390424    -0.11500
C408        C  0.58871467  0.16560807  0.15450290    -0.13100
C409        C  0.57044847  0.04738598  0.02391552    -0.11500
C410        C  0.55027764  0.06754043  0.50104643    -0.13100
C411        C  0.75923035  0.98249566  0.99796822    -0.11500
C412        C  0.77315129  0.97853191  0.46730429    -0.13100
C413        C  0.70327297  0.97848970  0.21730777    -0.11500
C414        C  0.71719698  0.98240416  0.24797001    -0.13100
C415        C  0.10070503  0.34451358  0.42449629    -0.11500
C416        C  0.12893217  0.37271752  0.42451266    -0.13100
C417        C  0.88755742  0.16564115  0.40448388    -0.11500
C418        C  0.86668650  0.13427870  0.39388443    -0.13100
C419        C  0.10076055  0.12612034  0.17449360    -0.11500
C420        C  0.12898530  0.09791388  0.17451620    -0.13100
C421        C  0.83929973  0.10678963  0.13104277    -0.11500
C422        C  0.80794573  0.08591752  0.12043978    -0.13100
C423        C  0.90595559  0.04741016  0.27388805    -0.11500
C424        C  0.92613880  0.06757504  0.25102817    -0.13100
C425        C  0.99098086  0.21432430  0.02693666    -0.11500
C426        C  0.99495781  0.20040077  0.05759789    -0.13100
C427        C  0.99109132  0.25639834  0.27693700    -0.11500
C428        C  0.99500573  0.27031585  0.30760422    -0.13100
C429        C  0.84741339  0.59792958  0.10044780    -0.11500
C430        C  0.87564944  0.62613003  0.10047174    -0.13100
C431        C  0.66848392  0.38478784  0.12042531    -0.11500
C432        C  0.63712599  0.36392201  0.13103674    -0.13100
C433        C  0.88772322  0.30511781  0.15446916    -0.11500
C434        C  0.86682493  0.33645990  0.14386860    -0.13100
C435        C  0.90598446  0.42334734  0.02387902    -0.11500
C436        C  0.92615090  0.40318421  0.50100971    -0.13100
C437        C  0.62891944  0.59795562  0.35044007    -0.11500
C438        C  0.60069443  0.62616177  0.35044399    -0.13100
C439        C  0.60971157  0.33642986  0.39388858    -0.11500
C440        C  0.58883253  0.30507077  0.40449074    -0.13100
C441        C  0.57046286  0.42331656  0.27390228    -0.11500
C442        C  0.55027791  0.40315950  0.25104056    -0.13100
C443        C  0.83931452  0.36404146  0.38101860    -0.11500
C444        C  0.80797717  0.38493781  0.37041944    -0.13100
C445        C  0.71719677  0.48822506  0.99795804    -0.11500
C446        C  0.70327089  0.49218701  0.46729821    -0.13100
C447        C  0.75921713  0.48829607  0.24795277    -0.11500
C448        C  0.77313983  0.49221312  0.21728663    -0.13100
O449        O  0.72944177  0.43774928  0.78848382    -0.80100
C450        C  0.69380550  0.49055516  0.92894058     0.99300
O451        O  0.72571563  0.48924097  0.90726923    -0.69200
O452        O  0.77161666  0.45107042  0.85629833    -0.72800
Al453      Al  0.72571705  0.49586945  0.85642008     1.49000
C454        C  0.76984518  0.40945135  0.85888340     0.94500
O455        O  0.64997872  0.37190997  0.84815037    -0.79000
O456        O  0.59454407  0.44477144  0.83222889    -0.72600
Al457      Al  0.68899241  0.41076266  0.82197183     1.90100
O458        O  0.62997686  0.41040292  0.89580400    -0.71600
O459        O  0.62228612  0.52255532  0.85262384    -0.71500
O460        O  0.65457134  0.48870434  0.91760829    -0.77100
O461        O  0.68906883  0.54871063  0.85860944    -0.75300
O462        O  0.68147270  0.45776510  0.85043227    -1.11500
O463        O  0.73172231  0.50679510  0.80561610    -0.70700
C464        C  0.73922410  0.47735448  0.78228778     1.00100
C465        C  0.63164933  0.37442160  0.87899148     0.96400
Al466      Al  0.62987856  0.46619777  0.87263428     1.55600
O467        O  0.73517728  0.38875667  0.85122728    -0.75300
C468        C  0.64828550  0.55456672  0.85345005     1.00600
C469        C  0.60426250  0.43427226  0.79969903     0.95500
O470        O  0.64355943  0.42824791  0.79010560    -0.80600
O471        O  0.83288819  0.42824881  0.54009033    -0.80100
C472        C  0.78259647  0.49052370  0.67892931     0.99300
O473        O  0.82183010  0.48870939  0.66758359    -0.69200
O474        O  0.84647216  0.41040721  0.64579275    -0.72800
Al475      Al  0.84653612  0.46619233  0.62261255     1.49000
C476        C  0.84484421  0.37442438  0.62897644     0.94500
O477        O  0.74129167  0.38865285  0.60121539    -0.79000
O478        O  0.74466617  0.50671117  0.55562428    -0.72600
Al479      Al  0.78746910  0.41071114  0.57195828     1.90100
O480        O  0.70481099  0.45094017  0.60630101    -0.71600
O481        O  0.78728861  0.54864925  0.60861930    -0.71500
O482        O  0.75068231  0.48913699  0.65727139    -0.77100
O483        O  0.85408377  0.52253953  0.60258070    -0.75300
O484        O  0.79494812  0.45771291  0.60042303    -1.11500
O485        O  0.88189154  0.44477669  0.58221135    -0.70700
C486        C  0.87218169  0.43428761  0.54968119     1.00100
C487        C  0.70660905  0.40932123  0.60888049     0.96400
Al488      Al  0.75067582  0.49577723  0.60642413     1.55600
O489        O  0.82651994  0.37189505  0.59813535    -0.75300
C490        C  0.82806515  0.55453270  0.60343778     1.00600
C491        C  0.73719083  0.47727642  0.53228872     0.95500
O492        O  0.74700007  0.43767327  0.53847395    -0.80600
O493        O  0.94056606  0.22659751  0.73641756    -0.80100
C494        C  0.99334809  0.19094074  0.59595762     0.99300
O495        O  0.99202812  0.22286664  0.61762167    -0.69200
O496        O  0.95385266  0.26877841  0.66858401    -0.72800
Al497      Al  0.99865858  0.22288600  0.66846948     1.49000
C498        C  0.91224783  0.26698807  0.66601016     0.94500
O499        O  0.87477102  0.14707026  0.67677773    -0.79000
O500        O  0.94763090  0.09165094  0.69270199    -0.72600
Al501      Al  0.91360083  0.18611848  0.70294275     1.90100
O502        O  0.91325522  0.12706527  0.62912337    -0.71600
O503        O  0.02538606  0.11943382  0.67228885    -0.71500
O504        O  0.99151998  0.15169654  0.60730120    -0.77100
O505        O  0.05149832  0.18625155  0.66628750    -0.75300
O506        O  0.96058739  0.17861073  0.67447527    -1.11500
O507        O  0.00958426  0.22891308  0.71926898    -0.70700
C508        C  0.98015406  0.23640114  0.74260378     1.00100
C509        C  0.87728127  0.12873388  0.64594035     0.96400
Al510      Al  0.96903687  0.12699718  0.65228538     1.55600
O511        O  0.89157617  0.23230202  0.67368245    -0.75300
C512        C  0.05737344  0.14546122  0.67146099     1.00600
C513        C  0.93712379  0.10137732  0.72523070     0.95500
O514        O  0.93110572  0.14068773  0.73481523    -0.80600
O515        O  0.93105376  0.33006804  0.98480269    -0.80100
C516        C  0.99331272  0.27976551  0.84596309     0.99300
O517        O  0.99151448  0.31900727  0.85731188    -0.69200
O518        O  0.91323962  0.34367765  0.87910034    -0.72800
Al519      Al  0.96900472  0.34371914  0.90228273     1.49000
C520        C  0.87726345  0.34205186  0.89591543     0.94500
O521        O  0.89144754  0.23846665  0.92368343    -0.79000
O522        O  0.00946205  0.24178517  0.96926267    -0.72600
Al523      Al  0.91351225  0.28464465  0.95293651     1.90100
O524        O  0.95370081  0.20195297  0.91858698    -0.71600
O525        O  0.05140627  0.28441189  0.91627808    -0.71500
O526        O  0.99190792  0.24783396  0.86761750    -0.77100
O527        O  0.02533791  0.35124194  0.92231784    -0.75300
O528        O  0.96050446  0.29211306  0.92447020    -1.11500
O529        O  0.94759707  0.37908754  0.94268242    -0.70700
C530        C  0.93709759  0.36937316  0.97521101     1.00100
C531        C  0.91209764  0.20376617  0.91601669     0.96400
Al532      Al  0.99853908  0.24781232  0.91846545     1.55600
O533        O  0.87472532  0.32372082  0.92675621    -0.75300
C534        C  0.05730886  0.32519593  0.92147090     1.00600
C535        C  0.98003657  0.23432231  0.99260375     0.95500
O536        O  0.94044924  0.24415103  0.98642289    -0.80600
O537        O  0.64354458  0.04248071  0.54011996    -0.80100
C538        C  0.69381685  0.98018303  0.67895022     0.99300
O539        O  0.65458379  0.98201208  0.66761225    -0.69200
O540        O  0.62995828  0.06031714  0.64582573    -0.72800
Al541      Al  0.62988514  0.00453314  0.62264425     1.49000
C542        C  0.63159169  0.09630098  0.62900921     0.94500
O543        O  0.73514071  0.08205858  0.60123579    -0.79000
O544        O  0.73175914  0.96400781  0.55563794    -0.72600
Al545      Al  0.68896422  0.06000880  0.57198351     1.90100
O546        O  0.77161259  0.01976625  0.60632026    -0.71600
O547        O  0.68911977  0.92206437  0.60862519    -0.71500
O548        O  0.72573086  0.98155942  0.65728763    -0.77100
O549        O  0.62232705  0.94818599  0.60261419    -0.75300
O550        O  0.68147612  0.01300479  0.60044693    -1.11500
O551        O  0.59453584  0.02595532  0.58224689    -0.70700
C552        C  0.60424886  0.03644574  0.54971447     1.00100
C553        C  0.76982076  0.06138520  0.60889954     0.96400
Al554      Al  0.72574216  0.97493245  0.60643880     1.55600
O555        O  0.64991727  0.09882773  0.59816622    -0.75300
C556        C  0.64834055  0.91618759  0.60345223     1.00600
C557        C  0.73923872  0.99344399  0.53230317     0.95500
O558        O  0.72943288  0.03304686  0.53849283    -0.80600
O559        O  0.74697712  0.03295261  0.78849301    -0.80100
C560        C  0.78261130  0.98015992  0.92894477     0.99300
O561        O  0.75069915  0.98148061  0.90728221    -0.69200
O562        O  0.70479702  0.01963846  0.85631403    -0.72800
Al563      Al  0.75069583  0.97484065  0.85643371     1.49000
C564        C  0.70657059  0.06125637  0.85889816     0.94500
O565        O  0.82643189  0.09879600  0.84814844    -0.79000
O566        O  0.88187211  0.02593308  0.83221355    -0.72600
Al567      Al  0.78742330  0.05994328  0.82197417     1.90100
O568        O  0.84644205  0.06029963  0.89579455    -0.71600
O569        O  0.85412396  0.94814572  0.85261056    -0.71500
O570        O  0.82184504  0.98199946  0.91760245    -0.77100
O571        O  0.78734039  0.92199835  0.85862620    -0.75300
O572        O  0.79494251  0.01294144  0.85043341    -1.11500
O573        O  0.74469074  0.96390807  0.80563078    -0.70700
C574        C  0.73719190  0.99334639  0.78230221     1.00100
C575        C  0.84476104  0.09628424  0.87898631     0.96400
Al576      Al  0.84653711  0.00450549  0.87262378     1.55600
O577        O  0.74123833  0.08194981  0.85123652    -0.75300
C578        C  0.82812154  0.91613656  0.85345703     1.00600
C579        C  0.87215510  0.03644066  0.79968612     0.95500
O580        O  0.83285825  0.04246190  0.79010024    -0.80600
O581        O  0.54535595  0.14065254  0.98483135    -0.80100
C582        C  0.48310344  0.19093546  0.84599425     0.99300
O583        O  0.48491134  0.15169158  0.85734178    -0.69200
O584        O  0.56318009  0.12703061  0.87912878    -0.72800
Al585      Al  0.50741262  0.12698317  0.90231458     1.49000
C586        C  0.59915292  0.12866159  0.89594088     0.94500
O587        O  0.58494900  0.23224693  0.92369336    -0.79000
O588        O  0.46693337  0.22891185  0.96930027    -0.72600
Al589      Al  0.56289134  0.18607227  0.95295696     1.90100
O590        O  0.52269114  0.26875390  0.91861213    -0.71600
O591        O  0.42499545  0.18627501  0.91631843    -0.71500
O592        O  0.48449091  0.22286446  0.86765137    -0.77100
O593        O  0.45107441  0.11944949  0.92234955    -0.75300
O594        O  0.51590058  0.17859187  0.92449927    -1.11500
O595        O  0.52881882  0.09162284  0.94271933    -0.70700
C596        C  0.53931975  0.10134383  0.97524537     1.00100
C597        C  0.56429397  0.26694499  0.91603041     0.96400
Al598      Al  0.47785810  0.22288546  0.91849987     1.55600
O599        O  0.60168599  0.14699670  0.92677829    -0.75300
C600        C  0.41909997  0.14548779  0.92150247     1.00600
C601        C  0.49636112  0.23638587  0.99263330     0.95500
O602        O  0.53594893  0.22656833  0.98644214    -0.80600
O603        O  0.53586121  0.24413794  0.73644699    -0.80100
C604        C  0.48307674  0.27977056  0.59599075     0.99300
O605        O  0.48440518  0.24784689  0.61765616    -0.69200
O606        O  0.52258134  0.20194582  0.66861897    -0.72800
Al607      Al  0.47777224  0.24783341  0.66850560     1.49000
C608        C  0.56418650  0.20373835  0.66604035     0.94500
O609        O  0.60165277  0.32365830  0.67678649    -0.79000
O610        O  0.52878640  0.37907794  0.69271982    -0.72600
Al611      Al  0.56282452  0.28461367  0.70296289     1.90100
O612        O  0.56316804  0.34365763  0.62913806    -0.71600
O613        O  0.45103117  0.35128368  0.67231961    -0.71500
O614        O  0.48490457  0.31901609  0.60733091    -0.77100
O615        O  0.42492924  0.28446160  0.66632530    -0.75300
O616        O  0.51583852  0.29211343  0.67450205    -1.11500
O617        O  0.46684439  0.24181059  0.71930827    -0.70700
C618        C  0.49627234  0.23432537  0.74263865     1.00100
C619        C  0.59914119  0.34198824  0.64594610     0.96400
Al620      Al  0.50738447  0.34372357  0.65230901     1.55600
O621        O  0.58485439  0.23842789  0.67370521    -0.75300
C622        C  0.41904789  0.32525215  0.67149239     1.00600
C623        C  0.53929439  0.36935606  0.72524561     0.95500
O624        O  0.54531599  0.33004726  0.73483300    -0.80600
O625        O  0.14353234  0.92821531  0.73486637    -0.80100
C626        C  0.19380071  0.99051522  0.59602706     0.99300
O627        O  0.15456949  0.98869880  0.60737717    -0.69200
O628        O  0.12994327  0.91039103  0.62916420    -0.72800
Al629      Al  0.12987264  0.96617274  0.65234895     1.49000
C630        C  0.13158225  0.87440641  0.64597647     0.94500
O631        O  0.23513185  0.88864997  0.67373350    -0.79000
O632        O  0.23174445  0.00670281  0.71932917    -0.72600
Al633      Al  0.18895424  0.91069527  0.70299394     1.90100
O634        O  0.27160354  0.95094264  0.66864804    -0.71600
O635        O  0.18911134  0.04863603  0.66633784    -0.71500
O636        O  0.22571884  0.98913030  0.61768195    -0.77100
O637        O  0.12231973  0.02251850  0.67238648    -0.75300
O638        O  0.18146460  0.95769887  0.67453333    -1.11500
O639        O  0.09452423  0.94474476  0.69275042    -0.70700
C640        C  0.10423779  0.93424909  0.72527855     1.00100
C641        C  0.26981134  0.90932486  0.66606826     0.96400
Al642      Al  0.22573112  0.99577050  0.66852931     1.55600
O643        O  0.14991203  0.87187584  0.67681505    -0.75300
C644        C  0.14833473  0.05451597  0.67152522     1.00600
C645        C  0.23922212  0.97726910  0.74266495     0.95500
O646        O  0.22941862  0.93766349  0.73647810    -0.80600
O647        O  0.24696258  0.93774112  0.98647721    -0.80100
C648        C  0.28259565  0.99054360  0.84601680     0.99300
O649        O  0.25068439  0.98922556  0.86768789    -0.69200
O650        O  0.20478633  0.95105100  0.91865918    -0.72800
Al651      Al  0.25068254  0.99585610  0.91853693     1.49000
C652        C  0.20656249  0.90943064  0.91607832     0.94500
O653        O  0.32642991  0.87190402  0.92681322    -0.79000
O654        O  0.38185986  0.94476591  0.94272969    -0.72600
Al655      Al  0.28741368  0.91075633  0.95299107     1.90100
O656        O  0.34642384  0.91039406  0.87915530    -0.71600
O657        O  0.35411366  0.02255030  0.92233179    -0.71500
O658        O  0.32182859  0.98869440  0.85734958    -0.77100
O659        O  0.28732942  0.04870125  0.91634695    -0.75300
O660        O  0.29492932  0.95775629  0.92452694    -1.11500
O661        O  0.24467383  0.00678458  0.96934034    -0.70700
C662        C  0.23717353  0.97734751  0.99267005     1.00100
C663        C  0.34475224  0.87441020  0.89597152     0.96400
Al664      Al  0.34652272  0.96619016  0.90232372     1.55600
O665        O  0.24122956  0.88874139  0.92373822    -0.75300
C666        C  0.32811294  0.05455925  0.92150513     1.00600
C667        C  0.37214262  0.93426832  0.97525834     0.95500
O668        O  0.33284532  0.92825072  0.98485550    -0.80600
O669        O  0.43105650  0.64063234  0.79013411    -0.80100
C670        C  0.49329617  0.69093125  0.92896980     0.99300
O671        O  0.49148836  0.65168782  0.91762349    -0.69200
O672        O  0.41321656  0.62702317  0.89583702    -0.72800
Al673      Al  0.46898731  0.62697603  0.87265299     1.49000
C674        C  0.37724444  0.62865059  0.87902589     0.94500
O675        O  0.39144489  0.73223286  0.85125757    -0.79000
O676        O  0.50946556  0.72891010  0.80566393    -0.72600
Al677      Al  0.41351093  0.68605442  0.82200174     1.90100
O678        O  0.45370085  0.76874294  0.85635047    -0.71600
O679        O  0.55140130  0.68627436  0.85864437    -0.71500
O680        O  0.49190447  0.72285986  0.90731279    -0.77100
O681        O  0.52532551  0.61944533  0.85261894    -0.75300
O682        O  0.46049840  0.67858266  0.85046432    -1.11500
O683        O  0.44758445  0.59160901  0.83225254    -0.70700
C684        C  0.43709058  0.60132607  0.79972345     1.00100
C685        C  0.41209639  0.76693187  0.85892545     0.96400
Al686      Al  0.49853736  0.72288044  0.85646372     1.55600
O687        O  0.37471491  0.64697922  0.84818208    -0.75300
C688        C  0.55729909  0.64548761  0.85346128     1.00600
C689        C  0.48003902  0.73637757  0.78232759     0.95500
O690        O  0.44045410  0.72654856  0.78851418    -0.80600
O691        O  0.44054628  0.74411206  0.53852478    -0.80100
C692        C  0.49333456  0.77977122  0.67897210     0.99300
O693        O  0.49200789  0.74784337  0.65730972    -0.69200
O694        O  0.45383652  0.70193107  0.60635068    -0.72800
Al695      Al  0.49864185  0.74782511  0.60646054     1.49000
C696        C  0.41223318  0.70372047  0.60893460     0.94500
O697        O  0.37475558  0.82363511  0.59818000    -0.79000
O698        O  0.44761885  0.87905895  0.58223345    -0.72600
Al699      Al  0.41358245  0.78459016  0.57200589     1.90100
O700        O  0.41324559  0.84364962  0.64582149    -0.71600
O701        O  0.52537646  0.85127610  0.60263230    -0.71500
O702        O  0.49150914  0.81901410  0.66762878    -0.77100
O703        O  0.55148358  0.78445904  0.60863940    -0.75300
O704        O  0.46057179  0.79210028  0.60046139    -1.11500
O705        O  0.50956653  0.74180023  0.55565740    -0.70700
C706        C  0.48013786  0.73430899  0.53233012     1.00100
C707        C  0.37727155  0.84197657  0.62901552     0.96400
Al708      Al  0.46902574  0.84371435  0.62264764     1.55600
O709        O  0.39156128  0.73840847  0.60127192    -0.75300
C710        C  0.55736339  0.82524959  0.60346683     1.00600
C711        C  0.43710427  0.86933206  0.54971044     0.95500
O712        O  0.43107945  0.83002116  0.54012768    -0.80600
O713        O  0.03586099  0.72656914  0.53855320    -0.80100
C714        C  0.98305970  0.69092700  0.67901374     0.99300
O715        O  0.98439586  0.72285292  0.65735230    -0.69200
O716        O  0.02257586  0.76875937  0.60638668    -0.72800
Al717      Al  0.97776667  0.72287238  0.60650328     1.49000
C718        C  0.06417838  0.76696745  0.60895869     0.94500
O719        O  0.10164277  0.64704831  0.59820666    -0.79000
O720        O  0.02877895  0.59162877  0.58227633    -0.72600
Al721      Al  0.06282162  0.68609319  0.57203378     1.90100
O722        O  0.06314788  0.62704316  0.64585615    -0.71600
O723        O  0.95102236  0.61942508  0.60267648    -0.71500
O724        O  0.98488098  0.65168213  0.66766907    -0.77100
O725        O  0.92492275  0.68624614  0.60868521    -0.75300
O726        O  0.01583147  0.67859216  0.60049863    -1.11500
O727        O  0.96684365  0.72889797  0.55570420    -0.70700
C728        C  0.99627357  0.73637943  0.53236820     1.00100
C729        C  0.09912429  0.62871080  0.62904458     0.96400
Al730      Al  0.00736996  0.62698030  0.62268825     1.55600
O731        O  0.08484818  0.73227830  0.60129052    -0.75300
C732        C  0.91904026  0.64545910  0.60350668     1.00600
C733        C  0.03929289  0.60134789  0.54975062     0.95500
O734        O  0.04531996  0.64065899  0.54016265    -0.80600
O735        O  0.04533891  0.83003203  0.79016602    -0.80100
C736        C  0.98308751  0.77975108  0.92901220     0.99300
O737        O  0.98489679  0.81899528  0.91766462    -0.69200
O738        O  0.06316988  0.84365183  0.89586746    -0.72800
Al739      Al  0.00740203  0.84370154  0.87269004     1.49000
C740        C  0.09914234  0.84202323  0.87904816     0.94500
O741        O  0.08493497  0.73843744  0.85129628    -0.79000
O742        O  0.96691987  0.74177065  0.80571070    -0.72600
Al743      Al  0.06287732  0.78461302  0.82203683     1.90100
O744        O  0.02267504  0.70193167  0.85639214    -0.71600
O745        O  0.92498197  0.78441148  0.85869285    -0.71500
O746        O  0.98447150  0.74782244  0.90735624    -0.77100
O747        O  0.95106777  0.85123642  0.85266296    -0.75300
O748        O  0.01588737  0.79209263  0.85050343    -1.11500
O749        O  0.02881093  0.87906189  0.83228290    -0.70700
C750        C  0.03930590  0.86934133  0.79975474     1.00100
C751        C  0.06427950  0.70373871  0.85896669     0.96400
Al752      Al  0.97784273  0.74779939  0.85650864     1.55600
O753        O  0.10167397  0.82369121  0.84820856    -0.75300
C754        C  0.91909090  0.82519756  0.85350603     1.00600
C755        C  0.99634793  0.73429757  0.78237216     0.95500
O756        O  0.03593498  0.74411588  0.78855634    -0.80600
O757        O  0.33286385  0.54247761  0.73485303    -0.80100
C758        C  0.28259297  0.48017207  0.59602503     0.99300
O759        O  0.32182383  0.48199754  0.60736509    -0.69200
O760        O  0.34644986  0.56030437  0.62914858    -0.72800
Al761      Al  0.34652234  0.50452246  0.65233181     1.49000
C762        C  0.34481566  0.59628805  0.64596326     0.94500
O763        O  0.24126258  0.58204153  0.67373894    -0.79000
O764        O  0.24465460  0.46399177  0.71933780    -0.72600
Al765      Al  0.28744125  0.55999818  0.70299033     1.90100
O766        O  0.20479328  0.51974644  0.66866072    -0.71600
O767        O  0.28728998  0.42205397  0.66634429    -0.71500
O768        O  0.25067589  0.48155127  0.61768821    -0.77100
O769        O  0.35408030  0.44817865  0.67236582    -0.75300
O770        O  0.29493134  0.51299381  0.67452835    -1.11500
O771        O  0.38187075  0.52594706  0.69272630    -0.70700
C772        C  0.37215756  0.53643806  0.72525898     1.00100
C773        C  0.20658232  0.56136446  0.66608034     0.96400
Al774      Al  0.25066668  0.47491885  0.66853639     1.55600
O775        O  0.32648457  0.59881832  0.67680466    -0.75300
C776        C  0.32806596  0.41617910  0.67152144     1.00600
C777        C  0.23717457  0.49342613  0.74267242     0.95500
O778        O  0.24697656  0.53303175  0.73648317    -0.80600
O779        O  0.22942698  0.53293562  0.98648421    -0.80100
C780        C  0.19379709  0.48014129  0.84603132     0.99300
O781        O  0.22570755  0.48146086  0.86769473    -0.69200
O782        O  0.27160175  0.51963467  0.91866042    -0.72800
Al783      Al  0.22571192  0.47482514  0.91854329     1.49000
C784        C  0.26982364  0.56125298  0.91607804     0.94500
O785        O  0.14994858  0.59876745  0.92684107    -0.79000
O786        O  0.09452840  0.52589373  0.94276722    -0.72600
Al787      Al  0.18897120  0.55991845  0.95300774     1.90100
O788        O  0.12995236  0.56027689  0.87918767    -0.71600
O789        O  0.12228631  0.44811660  0.92235774    -0.71500
O790        O  0.15456263  0.48198354  0.85737092    -0.77100
O791        O  0.18907392  0.42197657  0.91635335    -0.75300
O792        O  0.18145973  0.51291875  0.92454403    -1.11500
O793        O  0.23172095  0.46389249  0.96934520    -0.70700
C794        C  0.23921832  0.49333334  0.99267553     1.00100
C795        C  0.13162093  0.59626061  0.89600279     0.96400
Al796      Al  0.12986635  0.50447871  0.90235239     1.55600
O797        O  0.23515052  0.58193996  0.92374456    -0.75300
C798        C  0.14829317  0.41610998  0.92151706     1.00600
C799        C  0.10424721  0.53639617  0.97529599     0.95500
O800        O  0.14354315  0.54241729  0.98488175    -0.80600
C801        C  0.21718365  0.48247678  0.77700906    -0.11500
C802        C  0.20326086  0.47851248  0.80767074    -0.13100
C803        C  0.25921472  0.48239220  0.52700486    -0.11500
C804        C  0.27313786  0.47847872  0.55766916    -0.13100
C805        C  0.08881426  0.66561426  0.87050599    -0.11500
C806        C  0.10968739  0.63425147  0.88110825    -0.13100
C807        C  0.13710052  0.60676548  0.64394377    -0.11500
C808        C  0.16845582  0.58589250  0.65454507    -0.13100
C809        C  0.07044810  0.54736811  0.00109497    -0.11500
C810        C  0.05027168  0.56754228  0.52395522    -0.13100
C811        C  0.98143620  0.70038279  0.71737458    -0.11500
C812        C  0.98540280  0.71430170  0.74803804    -0.13100
C813        C  0.98533615  0.75637819  0.49803633    -0.11500
C814        C  0.98141021  0.77030014  0.96737069    -0.13100
C815        C  0.38770662  0.66559146  0.62047323    -0.11500
C816        C  0.36680081  0.63424994  0.63107161    -0.13100
C817        C  0.33928953  0.60666957  0.89392640    -0.11500
C818        C  0.30794887  0.58577427  0.90453380    -0.13100
C819        C  0.40595991  0.54736876  0.75105647    -0.11500
C820        C  0.42613524  0.56751975  0.77392608    -0.13100
C821        C  0.49495303  0.77030987  0.71733309    -0.11500
C822        C  0.49098498  0.75638256  0.74799418    -0.13100
C823        C  0.49498475  0.70038528  0.96732794    -0.11500
C824        C  0.49107019  0.71430828  0.49799513    -0.13100
C825        C  0.13709601  0.86401340  0.89394218    -0.11500
C826        C  0.16843132  0.88491153  0.90454091    -0.13100
C827        C  0.36668321  0.83641723  0.88106942    -0.11500
C828        C  0.38755603  0.80505681  0.87046538    -0.13100
C829        C  0.40594265  0.92329862  0.00105470    -0.11500
C830        C  0.42612110  0.90313372  0.52391261    -0.13100
C831        C  0.08870647  0.80509641  0.62049115    -0.11500
C832        C  0.10960549  0.83644133  0.63108601    -0.13100
C833        C  0.07043608  0.92330268  0.75108183    -0.11500
C834        C  0.05026445  0.90314518  0.77395123    -0.13100
C835        C  0.21717627  0.98828762  0.52700256    -0.11500
C836        C  0.20325222  0.99220483  0.55766946    -0.13100
C837        C  0.27313118  0.99217864  0.80765950    -0.11500
C838        C  0.25920991  0.98821876  0.77699775    -0.13100
C839        C  0.33929162  0.86392185  0.64391933    -0.11500
C840        C  0.30793848  0.88479439  0.65452523    -0.13100
C841        C  0.37565469  0.34458720  0.67451510    -0.11500
C842        C  0.34742261  0.37278529  0.67452518    -0.13100
C843        C  0.37570366  0.12615761  0.92451457    -0.11500
C844        C  0.34747877  0.09795070  0.92451528    -0.13100
C845        C  0.48541755  0.25638383  0.52696829    -0.11500
C846        C  0.48145331  0.27030752  0.55763216    -0.13100
C847        C  0.48141995  0.20038982  0.80763673    -0.11500
C848        C  0.48533834  0.21431890  0.77697064    -0.13100
C849        C  0.84748236  0.87274320  0.85046335    -0.11500
C850        C  0.87570035  0.84452965  0.85048069    -0.13100
C851        C  0.66843915  0.08577229  0.87043993    -0.11500
C852        C  0.63710400  0.10667043  0.88104197    -0.13100
C853        C  0.62898611  0.87279294  0.60044419    -0.11500
C854        C  0.60075432  0.84459044  0.60044922    -0.13100
C855        C  0.60961413  0.13426502  0.64390358    -0.11500
C856        C  0.58871360  0.16561011  0.65450341    -0.13100
C857        C  0.57044906  0.04738548  0.52391607    -0.11500
C858        C  0.55027798  0.06753995  0.00104692    -0.13100
C859        C  0.75923039  0.98249571  0.49796810    -0.11500
C860        C  0.77315157  0.97853179  0.96730439    -0.13100
C861        C  0.70327277  0.97848975  0.71730745    -0.11500
C862        C  0.71719715  0.98240430  0.74797031    -0.13100
C863        C  0.10070435  0.34451312  0.92449627    -0.11500
C864        C  0.12893269  0.37271830  0.92451264    -0.13100
C865        C  0.88755707  0.16564079  0.90448372    -0.11500
C866        C  0.86668670  0.13427919  0.89388443    -0.13100
C867        C  0.10076037  0.12612043  0.67449355    -0.11500
C868        C  0.12898547  0.09791363  0.67451633    -0.13100
C869        C  0.83930034  0.10678985  0.63104278    -0.11500
C870        C  0.80794521  0.08591710  0.62043964    -0.13100
C871        C  0.90595500  0.04740960  0.77388887    -0.11500
C872        C  0.92613929  0.06757563  0.75102721    -0.13100
C873        C  0.99098101  0.21432455  0.52693583    -0.11500
C874        C  0.99495782  0.20040037  0.55759854    -0.13100
C875        C  0.99109156  0.25639842  0.77693696    -0.11500
C876        C  0.99500575  0.27031558  0.80760418    -0.13100
C877        C  0.84741496  0.59793135  0.60044778    -0.11500
C878        C  0.87564771  0.62612840  0.60047163    -0.13100
C879        C  0.66848318  0.38478766  0.62042561    -0.11500
C880        C  0.63712658  0.36392231  0.63103662    -0.13100
C881        C  0.88772345  0.30511747  0.65446925    -0.11500
C882        C  0.86682476  0.33646000  0.64386843    -0.13100
C883        C  0.90598400  0.42334754  0.52387931    -0.11500
C884        C  0.92615061  0.40318470  0.00101007    -0.13100
C885        C  0.62892000  0.59795516  0.85044002    -0.11500
C886        C  0.60069408  0.62616196  0.85044398    -0.13100
C887        C  0.60971083  0.33642845  0.89388909    -0.11500
C888        C  0.58883368  0.30507203  0.90449034    -0.13100
C889        C  0.57046256  0.42331629  0.77390203    -0.11500
C890        C  0.55027812  0.40315982  0.75104082    -0.13100
C891        C  0.83931492  0.36404146  0.88101866    -0.11500
C892        C  0.80797704  0.38493796  0.87041945    -0.13100
C893        C  0.71719629  0.48822513  0.49795728    -0.11500
C894        C  0.70327038  0.49218698  0.96729746    -0.13100
C895        C  0.75921688  0.48829605  0.74795307    -0.11500
C896        C  0.77314008  0.49221308  0.71728642    -0.13100
loop_ 
_geom_bond_atom_site_label_1 
_geom_bond_atom_site_label_2 
_geom_bond_distance 
_geom_bond_site_symmetry_2 
_ccdc_geom_bond_type 
O1           C16   1.261       .  A
O1           Al9   1.920       .  S
C2           O12   1.264       .  A
C2            O3   1.254       .  A
C2          C446   1.434       .  S
O3           Al5   1.871       .  S
O4            C6   1.270       .  A
O4           Al5   1.950       .  S
Al5          O13   1.957       .  S
Al5          O15   1.897       .  S
Al5          O14   1.789       .  S
C6           O19   1.259       .  A
C6          C444   1.442       .  S
O7           C17   1.261       .  A
O7           Al9   1.929       .  S
O8           C21   1.267       .  A
O8          Al18   1.940       .  S
Al9          O22   1.885       .  S
Al9          O19   1.889       .  S
Al9          O14   1.783       .  S
O10          C17   1.256       .  A
O10         Al18   1.896       .  S
O11          C20   1.254       .  A
O11         Al18   1.878       .  S
O12         Al18   1.934       .  S
O13          C20   1.267       .  A
O14         Al18   1.785       .  S
O15          C16   1.258       .  A
C16         C447   1.435       .  S
C17         C439   1.441       .  S
C20         C437   1.449       .  S
C21          O22   1.259       .  A
C21         C441   1.435       .  S
O23          C38   1.259       .  A
O23         Al31   1.885       .  S
C24          O34   1.254       .  A
C24          O25   1.264       .  A
C24         C448   1.434       .  S
O25         Al27   1.934       .  S
O26          C28   1.256       .  A
O26         Al27   1.896       .  S
Al27         O35   1.877       .  S
Al27         O37   1.940       .  S
Al27         O36   1.785       .  S
C28          O41   1.261       .  A
C28         C434   1.441       .  S
O29          C39   1.259       .  A
O29         Al31   1.889       .  S
O30          C43   1.258       .  A
O30         Al40   1.897       .  S
Al31         O44   1.920       .  S
Al31         O41   1.929       .  S
Al31         O36   1.783       .  S
O32          C39   1.270       .  A
O32         Al40   1.950       .  S
O33          C42   1.267       .  A
O33         Al40   1.957       .  S
O34         Al40   1.871       .  S
O35          C42   1.254       .  A
O36         Al40   1.789       .  S
O37          C38   1.267       .  A
C38         C435   1.435       .  S
C39         C431   1.442       .  S
C42         C429   1.449       .  S
C43          O44   1.261       .  A
C43         C445   1.435   1_554  S
O45          C60   1.261       .  A
O45         Al53   1.920       .  S
C46          O56   1.264       .  A
C46          O47   1.254       .  A
C46         C426   1.434       .  S
O47         Al49   1.871       .  S
O48          C50   1.270       .  A
O48         Al49   1.950       .  S
Al49         O57   1.957   1_655  S
Al49         O59   1.897   1_655  S
Al49         O58   1.789       .  S
C50          O63   1.259       .  A
C50         C433   1.442       .  S
O51          C61   1.261       .  A
O51         Al53   1.929       .  S
O52          C65   1.267       .  A
O52         Al62   1.941       .  S
Al53         O66   1.885       .  S
Al53         O63   1.889       .  S
Al53         O58   1.783       .  S
O54          C61   1.256       .  A
O54         Al62   1.896       .  S
O55          C64   1.254       .  A
O55         Al62   1.878   1_455  S
O56         Al62   1.934       .  S
O57          C64   1.267       .  A
O58         Al62   1.785       .  S
O59          C60   1.258   1_455  A
C60         C427   1.435       .  S
C61         C421   1.441       .  S
C64         C419   1.449       .  S
C65          O66   1.259       .  A
C65         C424   1.435       .  S
O67          C82   1.259       .  A
O67         Al75   1.885       .  S
C68          O78   1.254       .  A
C68          O69   1.265       .  A
C68         C428   1.434       .  S
O69         Al71   1.934       .  S
O70          C72   1.256       .  A
O70         Al71   1.896       .  S
Al71         O79   1.878   1_655  S
Al71         O81   1.940       .  S
Al71         O80   1.785       .  S
C72          O85   1.261       .  A
C72         C443   1.441       .  S
O73          C83   1.259       .  A
O73         Al75   1.889       .  S
O74          C87   1.258   1_455  A
O74         Al84   1.897   1_455  S
Al75         O88   1.921       .  S
Al75         O85   1.929       .  S
Al75         O80   1.783       .  S
O76          C83   1.270       .  A
O76         Al84   1.950       .  S
O77          C86   1.267       .  A
O77         Al84   1.957   1_455  S
O78         Al84   1.871       .  S
O79          C86   1.254       .  A
O80         Al84   1.789       .  S
O81          C82   1.267       .  A
C82         C436   1.435       .  S
C83         C417   1.442       .  S
C86         C415   1.449       .  S
C87          O88   1.261       .  A
C87         C873   1.435       .  S
O89         C104   1.259       .  A
O89         Al97   1.885       .  S
C90         O100   1.254       .  A
C90          O91   1.264       .  A
C90         C413   1.434       .  S
O91         Al93   1.934   1_565  S
O92          C94   1.256       .  A
O92         Al93   1.896       .  S
Al93        O101   1.877   1_545  S
Al93        O103   1.940       .  S
Al93        O102   1.785       .  S
C94         O107   1.261       .  A
C94         C407   1.441       .  S
O95         C105   1.259       .  A
O95         Al97   1.889       .  S
O96         C109   1.258       .  A
O96        Al106   1.897       .  S
Al97        O110   1.920       .  S
Al97        O107   1.929       .  S
Al97        O102   1.783       .  S
O98         C105   1.270       .  A
O98        Al106   1.950   1_545  S
O99         C108   1.267       .  A
O99        Al106   1.957       .  S
O100       Al106   1.871       .  S
O101        C108   1.254       .  A
O102       Al106   1.789   1_545  S
O103        C104   1.267       .  A
C104        C409   1.435       .  S
C105        C422   1.442       .  S
C108        C405   1.449       .  S
C109        O110   1.261   1_565  A
C109        C411   1.435   1_554  S
O111        C126   1.261   1_545  A
O111       Al119   1.920       .  S
C112        O122   1.264       .  A
C112        O113   1.254       .  A
C112        C412   1.434       .  S
O113       Al115   1.871       .  S
O114        C116   1.270       .  A
O114       Al115   1.950   1_545  S
Al115       O123   1.957       .  S
Al115       O125   1.897       .  S
Al115       O124   1.789   1_565  S
C116        O129   1.259       .  A
C116        C403   1.442       .  S
O117        C127   1.261       .  A
O117       Al119   1.929       .  S
O118        C131   1.267       .  A
O118       Al128   1.940       .  S
Al119       O132   1.885       .  S
Al119       O129   1.889       .  S
Al119       O124   1.783       .  S
O120        C127   1.256       .  A
O120       Al128   1.896       .  S
O121        C130   1.254       .  A
O121       Al128   1.878   1_565  S
O122       Al128   1.934   1_565  S
O123        C130   1.267       .  A
O124       Al128   1.785       .  S
O125        C126   1.258       .  A
C126        C414   1.435       .  S
C127        C418   1.441       .  S
C130        C401   1.449       .  S
C131        O132   1.259       .  A
C131        C423   1.435       .  S
O133        C148   1.259       .  A
O133       Al141   1.885       .  S
C134        O144   1.254       .  A
C134        O135   1.264       .  A
C134        C399   1.434       .  S
O135       Al137   1.934       .  S
O136        C138   1.256       .  A
O136       Al137   1.896       .  S
Al137       O145   1.878       .  S
Al137       O147   1.941       .  S
Al137       O146   1.785       .  S
C138        O151   1.261       .  A
C138        C404   1.441       .  S
O139        C149   1.259       .  A
O139       Al141   1.889       .  S
O140        C153   1.258       .  A
O140       Al150   1.897       .  S
Al141       O154   1.920       .  S
Al141       O151   1.929       .  S
Al141       O146   1.783       .  S
O142        C149   1.270       .  A
O142       Al150   1.950       .  S
O143        C152   1.267       .  A
O143       Al150   1.957       .  S
O144       Al150   1.871       .  S
O145        C152   1.254       .  A
O146       Al150   1.789       .  S
O147        C148   1.267       .  A
C148        C410   1.435       .  S
C149        C440   1.442       .  S
C152        C395   1.449       .  S
C153        O154   1.261       .  A
C153        C845   1.435       .  S
O155        C170   1.261       .  A
O155       Al163   1.920       .  S
C156        O166   1.264       .  A
C156        O157   1.254       .  A
C156        C398   1.434       .  S
O157       Al159   1.871       .  S
O158        C160   1.270       .  A
O158       Al159   1.950       .  S
Al159       O167   1.957       .  S
Al159       O169   1.897       .  S
Al159       O168   1.789       .  S
C160        O173   1.259       .  A
C160        C408   1.442       .  S
O161        C171   1.261       .  A
O161       Al163   1.929       .  S
O162        C175   1.267       .  A
O162       Al172   1.941       .  S
Al163       O176   1.884       .  S
Al163       O173   1.889       .  S
Al163       O168   1.783       .  S
O164        C171   1.256       .  A
O164       Al172   1.897       .  S
O165        C174   1.254       .  A
O165       Al172   1.878       .  S
O166       Al172   1.934       .  S
O167        C174   1.267       .  A
O168       Al172   1.785       .  S
O169        C170   1.258       .  A
C170        C400   1.435       .  S
C171        C432   1.441       .  S
C174        C393   1.449       .  S
C175        O176   1.259       .  A
C175        C442   1.435       .  S
O177        C192   1.259       .  A
O177       Al185   1.885       .  S
C178        O188   1.254       .  A
C178        O179   1.265       .  A
C178        C388   1.434       .  S
O179       Al181   1.934       .  S
O180        C182   1.256       .  A
O180       Al181   1.896       .  S
Al181       O189   1.877   1_565  S
Al181       O191   1.940       .  S
Al181       O190   1.785       .  S
C182        O195   1.261       .  A
C182        C384   1.441       .  S
O183        C193   1.259       .  A
O183       Al185   1.889       .  S
O184        C197   1.258   1_545  A
O184       Al194   1.897   1_545  S
Al185       O198   1.920       .  S
Al185       O195   1.929       .  S
Al185       O190   1.783       .  S
O186        C193   1.270       .  A
O186       Al194   1.950       .  S
O187        C196   1.267       .  A
O187       Al194   1.957   1_545  S
O188       Al194   1.871       .  S
O189        C196   1.254       .  A
O190       Al194   1.789       .  S
O191        C192   1.267       .  A
C192        C385   1.435       .  S
C193        C392   1.442       .  S
C196        C420   1.449       .  S
C197        O198   1.261       .  A
C197        C390   1.435       .  S
O199        C214   1.261       .  A
O199       Al207   1.920       .  S
C200        O210   1.265       .  A
C200        O201   1.254       .  A
C200        C389   1.434       .  S
O201       Al203   1.871       .  S
O202        C204   1.270       .  A
O202       Al203   1.950       .  S
Al203       O211   1.957   1_565  S
Al203       O213   1.897   1_565  S
Al203       O212   1.789       .  S
C204        O217   1.259       .  A
C204        C378   1.442       .  S
O205        C215   1.261       .  A
O205       Al207   1.929       .  S
O206        C219   1.267       .  A
O206       Al216   1.940       .  S
Al207       O220   1.885       .  S
Al207       O217   1.889       .  S
Al207       O212   1.783       .  S
O208        C215   1.256       .  A
O208       Al216   1.896       .  S
O209        C218   1.254       .  A
O209       Al216   1.878   1_545  S
O210       Al216   1.934       .  S
O211        C218   1.267       .  A
O212       Al216   1.785       .  S
O213        C214   1.258   1_545  A
C214        C835   1.435       .  S
C215        C379   1.441       .  S
C218        C396   1.449       .  S
C219        O220   1.259       .  A
C219        C381   1.435       .  S
O221        C236   1.259       .  A
O221       Al229   1.884       .  S
C222        O232   1.254       .  A
C222        O223   1.264       .  A
C222        C375   1.434       .  S
O223       Al225   1.934       .  S
O224        C226   1.256       .  A
O224       Al225   1.896       .  S
Al225       O233   1.878       .  S
Al225       O235   1.940       .  S
Al225       O234   1.785       .  S
C226        O239   1.261       .  A
C226        C369   1.441       .  S
O227        C237   1.259       .  A
O227       Al229   1.889       .  S
O228        C241   1.258       .  A
O228       Al238   1.897       .  S
Al229       O242   1.920       .  S
Al229       O239   1.929       .  S
Al229       O234   1.783       .  S
O230        C237   1.270       .  A
O230       Al238   1.950       .  S
O231        C240   1.267       .  A
O231       Al238   1.957       .  S
O232       Al238   1.871       .  S
O233        C240   1.254       .  A
O234       Al238   1.789       .  S
O235        C236   1.267       .  A
C236        C372   1.435       .  S
C237        C380   1.442       .  S
C240        C438   1.449       .  S
C241        O242   1.261       .  A
C241        C374   1.435       .  S
O243        C258   1.261       .  A
O243       Al251   1.920       .  S
C244        O254   1.265       .  A
C244        O245   1.254       .  A
C244        C373   1.434       .  S
O245       Al247   1.871       .  S
O246        C248   1.270       .  A
O246       Al247   1.950       .  S
Al247       O255   1.957       .  S
Al247       O257   1.897       .  S
Al247       O256   1.789       .  S
C248        O261   1.259       .  A
C248        C367   1.442       .  S
O249        C259   1.261       .  A
O249       Al251   1.929       .  S
O250        C263   1.267       .  A
O250       Al260   1.941       .  S
Al251       O264   1.885       .  S
Al251       O261   1.889       .  S
Al251       O256   1.783       .  S
O252        C259   1.256       .  A
O252       Al260   1.896       .  S
O253        C262   1.254       .  A
O253       Al260   1.878       .  S
O254       Al260   1.934       .  S
O255        C262   1.267       .  A
O256       Al260   1.785       .  S
O257        C258   1.258       .  A
C258        C376   1.435   1_554  S
C259        C391   1.441       .  S
C262        C406   1.449       .  S
C263        O264   1.259       .  A
C263        C382   1.435       .  S
O265        C280   1.261   1_455  A
O265       Al273   1.920       .  S
C266        O276   1.265       .  A
C266        O267   1.254       .  A
C266        C363   1.434       .  S
O267       Al269   1.871       .  S
O268        C270   1.270       .  A
O268       Al269   1.950   1_455  S
Al269       O277   1.957       .  S
Al269       O279   1.897       .  S
Al269       O278   1.789   1_655  S
C270        O283   1.259       .  A
C270        C383   1.442       .  S
O271        C281   1.261       .  A
O271       Al273   1.929       .  S
O272        C285   1.267       .  A
O272       Al282   1.940       .  S
Al273       O286   1.885       .  S
Al273       O283   1.889       .  S
Al273       O278   1.783       .  S
O274        C281   1.256       .  A
O274       Al282   1.896       .  S
O275        C284   1.254       .  A
O275       Al282   1.878   1_655  S
O276       Al282   1.934   1_655  S
O277        C284   1.267       .  A
O278       Al282   1.785       .  S
O279        C280   1.258       .  A
C280        C365   1.435   1_554  S
C281        C359   1.441       .  S
C284        C430   1.449       .  S
C285        O286   1.259       .  A
C285        C362   1.435       .  S
O287        C302   1.259       .  A
O287       Al295   1.885       .  S
C288        O298   1.254       .  A
C288        O289   1.265       .  A
C288        C366   1.434       .  S
O289       Al291   1.934   1_655  S
O290        C292   1.256       .  A
O290       Al291   1.896       .  S
Al291       O299   1.878   1_455  S
Al291       O301   1.940       .  S
Al291       O300   1.785       .  S
C292        O305   1.261       .  A
C292        C377   1.441       .  S
O293        C303   1.259       .  A
O293       Al295   1.889       .  S
O294        C307   1.258       .  A
O294       Al304   1.897       .  S
Al295       O308   1.920       .  S
Al295       O305   1.929       .  S
Al295       O300   1.783       .  S
O296        C303   1.270       .  A
O296       Al304   1.950   1_455  S
O297        C306   1.267       .  A
O297       Al304   1.957       .  S
O298       Al304   1.871       .  S
O299        C306   1.254       .  A
O300       Al304   1.789   1_455  S
O301        C302   1.267       .  A
C302        C386   1.435       .  S
C303        C357   1.442       .  S
C306        C402   1.449       .  S
C307        O308   1.261   1_655  A
C307        C364   1.435       .  S
O309        C324   1.259       .  A
O309       Al317   1.885       .  S
C310        O320   1.254       .  A
C310        O311   1.265       .  A
C310        C356   1.434       .  S
O311       Al313   1.934       .  S
O312        C314   1.256       .  A
O312       Al313   1.896       .  S
Al313       O321   1.877       .  S
Al313       O323   1.940       .  S
Al313       O322   1.785       .  S
C314        O327   1.261       .  A
C314        C368   1.441       .  S
O315        C325   1.259       .  A
O315       Al317   1.889       .  S
O316        C329   1.258       .  A
O316       Al326   1.897       .  S
Al317       O330   1.920       .  S
Al317       O327   1.929       .  S
Al317       O322   1.783       .  S
O318        C325   1.270       .  A
O318       Al326   1.950       .  S
O319        C328   1.267       .  A
O319       Al326   1.957       .  S
O320       Al326   1.871       .  S
O321        C328   1.254       .  A
O322       Al326   1.789       .  S
O323        C324   1.267       .  A
C324        C371   1.435       .  S
C325        C360   1.442       .  S
C328        C394   1.449       .  S
C329        O330   1.261       .  A
C329        C353   1.435       .  S
O331        C346   1.261       .  A
O331       Al339   1.920       .  S
C332        O342   1.264       .  A
C332        O333   1.254       .  A
C332        C354   1.434       .  S
O333       Al335   1.871       .  S
O334        C336   1.270       .  A
O334       Al335   1.950       .  S
Al335       O343   1.957       .  S
Al335       O345   1.897       .  S
Al335       O344   1.789       .  S
C336        O349   1.259       .  A
C336        C370   1.442       .  S
O337        C347   1.261       .  A
O337       Al339   1.929       .  S
O338        C351   1.267       .  A
O338       Al348   1.940       .  S
Al339       O352   1.885       .  S
Al339       O349   1.889       .  S
Al339       O344   1.783       .  S
O340        C347   1.256       .  A
O340       Al348   1.896       .  S
O341        C350   1.254       .  A
O341       Al348   1.878       .  S
O342       Al348   1.934       .  S
O343        C350   1.267       .  A
O344       Al348   1.785       .  S
O345        C346   1.258       .  A
C346        C803   1.435       .  S
C347        C358   1.441       .  S
C350        C416   1.449       .  S
C351        O352   1.259       .  A
C351        C361   1.435       .  S
C353        C354   1.205       .  T
C355        C794   1.435   1_554  S
C355        C356   1.205       .  T
C357        C358   1.209       .  T
C359        C360   1.209       .  T
C361        C810   1.205       .  T
C362        C809   1.205       .  T
C363        C364   1.205       .  T
C365        C814   1.205       .  T
C366        C813   1.205       .  T
C367        C368   1.209       .  T
C369        C370   1.209       .  T
C371        C372   1.205       .  T
C373        C374   1.205       .  T
C375        C824   1.205       .  T
C376        C823   1.205       .  T
C377        C378   1.209       .  T
C379        C380   1.209       .  T
C381        C830   1.205       .  T
C382        C829   1.205       .  T
C383        C384   1.209       .  T
C385        C386   1.205       .  T
C387        C662   1.435   1_554  S
C387        C388   1.205       .  T
C389        C390   1.205       .  T
C391        C392   1.209       .  T
C393        C394   1.213       .  T
C395        C396   1.213       .  T
C397        C601   1.435   1_554  S
C397        C398   1.205       .  T
C399        C400   1.205       .  T
C401        C402   1.213       .  T
C403        C404   1.209       .  T
C405        C406   1.213       .  T
C407        C408   1.209       .  T
C409        C858   1.205       .  T
C410        C857   1.205       .  T
C411        C860   1.205       .  T
C412        C859   1.205       .  T
C413        C414   1.205       .  T
C415        C416   1.213       .  T
C417        C418   1.209       .  T
C419        C420   1.213       .  T
C421        C422   1.209       .  T
C423        C424   1.205       .  T
C425        C535   1.435   1_554  S
C425        C426   1.205       .  T
C427        C428   1.205       .  T
C429        C430   1.213       .  T
C431        C432   1.209       .  T
C433        C434   1.209       .  T
C435        C884   1.205       .  T
C436        C883   1.205       .  T
C437        C438   1.213       .  T
C439        C440   1.209       .  T
C441        C442   1.205       .  T
C443        C444   1.209       .  T
C445        C894   1.205       .  T
C446        C893   1.205       .  T
C447        C448   1.205       .  T
O449        C464   1.261       .  A
O449       Al457   1.920       .  S
C450        O460   1.265       .  A
C450        O451   1.254       .  A
C450        C894   1.434       .  S
O451       Al453   1.871       .  S
O452        C454   1.270       .  A
O452       Al453   1.950       .  S
Al453       O461   1.957       .  S
Al453       O463   1.897       .  S
Al453       O462   1.789       .  S
C454        O467   1.259       .  A
C454        C892   1.442       .  S
O455        C465   1.261       .  A
O455       Al457   1.929       .  S
O456        C469   1.267       .  A
O456       Al466   1.940       .  S
Al457       O470   1.885       .  S
Al457       O467   1.889       .  S
Al457       O462   1.783       .  S
O458        C465   1.256       .  A
O458       Al466   1.896       .  S
O459        C468   1.254       .  A
O459       Al466   1.878       .  S
O460       Al466   1.934       .  S
O461        C468   1.267       .  A
O462       Al466   1.785       .  S
O463        C464   1.258       .  A
C464        C895   1.435       .  S
C465        C887   1.441       .  S
C468        C885   1.449       .  S
C469        O470   1.259       .  A
C469        C889   1.435       .  S
O471        C486   1.259       .  A
O471       Al479   1.885       .  S
C472        O482   1.254       .  A
C472        O473   1.265       .  A
C472        C896   1.434       .  S
O473       Al475   1.934       .  S
O474        C476   1.256       .  A
O474       Al475   1.896       .  S
Al475       O483   1.877       .  S
Al475       O485   1.940       .  S
Al475       O484   1.785       .  S
C476        O489   1.261       .  A
C476        C882   1.441       .  S
O477        C487   1.259       .  A
O477       Al479   1.889       .  S
O478        C491   1.258       .  A
O478       Al488   1.897       .  S
Al479       O492   1.920       .  S
Al479       O489   1.929       .  S
Al479       O484   1.783       .  S
O480        C487   1.270       .  A
O480       Al488   1.950       .  S
O481        C490   1.267       .  A
O481       Al488   1.957       .  S
O482       Al488   1.871       .  S
O483        C490   1.254       .  A
O484       Al488   1.789       .  S
O485        C486   1.267       .  A
C486        C883   1.435       .  S
C487        C879   1.442       .  S
C490        C877   1.449       .  S
C491        O492   1.261       .  A
C491        C893   1.435       .  S
O493        C508   1.261       .  A
O493       Al501   1.920       .  S
C494        O504   1.264       .  A
C494        O495   1.254       .  A
C494        C874   1.434       .  S
O495       Al497   1.871       .  S
O496        C498   1.270       .  A
O496       Al497   1.950       .  S
Al497       O505   1.957   1_655  S
Al497       O507   1.897   1_655  S
Al497       O506   1.789       .  S
C498        O511   1.259       .  A
C498        C881   1.442       .  S
O499        C509   1.261       .  A
O499       Al501   1.929       .  S
O500        C513   1.267       .  A
O500       Al510   1.940       .  S
Al501       O514   1.885       .  S
Al501       O511   1.889       .  S
Al501       O506   1.783       .  S
O502        C509   1.256       .  A
O502       Al510   1.896       .  S
O503        C512   1.254       .  A
O503       Al510   1.878   1_455  S
O504       Al510   1.934       .  S
O505        C512   1.267       .  A
O506       Al510   1.785       .  S
O507        C508   1.258   1_455  A
C508        C875   1.435       .  S
C509        C869   1.441       .  S
C512        C867   1.449       .  S
C513        O514   1.259       .  A
C513        C872   1.435       .  S
O515        C530   1.259       .  A
O515       Al523   1.885       .  S
C516        O526   1.254       .  A
C516        O517   1.264       .  A
C516        C876   1.434       .  S
O517       Al519   1.934       .  S
O518        C520   1.256       .  A
O518       Al519   1.896       .  S
Al519       O527   1.878   1_655  S
Al519       O529   1.940       .  S
Al519       O528   1.785       .  S
C520        O533   1.261       .  A
C520        C891   1.441       .  S
O521        C531   1.259       .  A
O521       Al523   1.889       .  S
O522        C535   1.258   1_455  A
O522       Al532   1.897   1_455  S
Al523       O536   1.921       .  S
Al523       O533   1.929       .  S
Al523       O528   1.783       .  S
O524        C531   1.270       .  A
O524       Al532   1.950       .  S
O525        C534   1.267       .  A
O525       Al532   1.957   1_455  S
O526       Al532   1.871       .  S
O527        C534   1.254       .  A
O528       Al532   1.789       .  S
O529        C530   1.267       .  A
C530        C884   1.435   1_556  S
C531        C865   1.442       .  S
C534        C863   1.449       .  S
C535        O536   1.261       .  A
O537        C552   1.259       .  A
O537       Al545   1.885       .  S
C538        O548   1.254       .  A
C538        O539   1.265       .  A
C538        C861   1.434       .  S
O539       Al541   1.934   1_565  S
O540        C542   1.256       .  A
O540       Al541   1.896       .  S
Al541       O549   1.877   1_545  S
Al541       O551   1.940       .  S
Al541       O550   1.785       .  S
C542        O555   1.261       .  A
C542        C855   1.441       .  S
O543        C553   1.259       .  A
O543       Al545   1.889       .  S
O544        C557   1.258       .  A
O544       Al554   1.897       .  S
Al545       O558   1.920       .  S
Al545       O555   1.929       .  S
Al545       O550   1.783       .  S
O546        C553   1.270       .  A
O546       Al554   1.950   1_545  S
O547        C556   1.267       .  A
O547       Al554   1.957       .  S
O548       Al554   1.871       .  S
O549        C556   1.254       .  A
O550       Al554   1.789   1_545  S
O551        C552   1.267       .  A
C552        C857   1.435       .  S
C553        C870   1.442       .  S
C556        C853   1.449       .  S
C557        O558   1.261   1_565  A
C557        C859   1.435       .  S
O559        C574   1.261   1_545  A
O559       Al567   1.920       .  S
C560        O570   1.265       .  A
C560        O561   1.254       .  A
C560        C860   1.434       .  S
O561       Al563   1.871       .  S
O562        C564   1.270       .  A
O562       Al563   1.950   1_545  S
Al563       O571   1.957       .  S
Al563       O573   1.897       .  S
Al563       O572   1.789   1_565  S
C564        O577   1.259       .  A
C564        C851   1.442       .  S
O565        C575   1.261       .  A
O565       Al567   1.929       .  S
O566        C579   1.267       .  A
O566       Al576   1.940       .  S
Al567       O580   1.885       .  S
Al567       O577   1.889       .  S
Al567       O572   1.783       .  S
O568        C575   1.256       .  A
O568       Al576   1.896       .  S
O569        C578   1.254       .  A
O569       Al576   1.878   1_565  S
O570       Al576   1.934   1_565  S
O571        C578   1.267       .  A
O572       Al576   1.785       .  S
O573        C574   1.258       .  A
C574        C862   1.435       .  S
C575        C866   1.441       .  S
C578        C849   1.449       .  S
C579        O580   1.259       .  A
C579        C871   1.435       .  S
O581        C596   1.259       .  A
O581       Al589   1.885       .  S
C582        O592   1.254       .  A
C582        O583   1.265       .  A
C582        C847   1.434       .  S
O583       Al585   1.934       .  S
O584        C586   1.256       .  A
O584       Al585   1.896       .  S
Al585       O593   1.878       .  S
Al585       O595   1.941       .  S
Al585       O594   1.785       .  S
C586        O599   1.261       .  A
C586        C852   1.441       .  S
O587        C597   1.259       .  A
O587       Al589   1.889       .  S
O588        C601   1.258       .  A
O588       Al598   1.897       .  S
Al589       O602   1.920       .  S
Al589       O599   1.929       .  S
Al589       O594   1.783       .  S
O590        C597   1.270       .  A
O590       Al598   1.950       .  S
O591        C600   1.267       .  A
O591       Al598   1.957       .  S
O592       Al598   1.871       .  S
O593        C600   1.254       .  A
O594       Al598   1.789       .  S
O595        C596   1.267       .  A
C596        C858   1.435   1_556  S
C597        C888   1.442       .  S
C600        C843   1.449       .  S
C601        O602   1.261       .  A
O603        C618   1.261       .  A
O603       Al611   1.920       .  S
C604        O614   1.264       .  A
C604        O605   1.254       .  A
C604        C846   1.434       .  S
O605       Al607   1.871       .  S
O606        C608   1.270       .  A
O606       Al607   1.950       .  S
Al607       O615   1.957       .  S
Al607       O617   1.897       .  S
Al607       O616   1.789       .  S
C608        O621   1.259       .  A
C608        C856   1.442       .  S
O609        C619   1.261       .  A
O609       Al611   1.929       .  S
O610        C623   1.267       .  A
O610       Al620   1.941       .  S
Al611       O624   1.884       .  S
Al611       O621   1.889       .  S
Al611       O616   1.783       .  S
O612        C619   1.256       .  A
O612       Al620   1.897       .  S
O613        C622   1.254       .  A
O613       Al620   1.878       .  S
O614       Al620   1.934       .  S
O615        C622   1.267       .  A
O616       Al620   1.785       .  S
O617        C618   1.258       .  A
C618        C848   1.435       .  S
C619        C880   1.441       .  S
C622        C841   1.449       .  S
C623        O624   1.259       .  A
C623        C890   1.435       .  S
O625        C640   1.259       .  A
O625       Al633   1.885       .  S
C626        O636   1.254       .  A
C626        O627   1.265       .  A
C626        C836   1.434       .  S
O627       Al629   1.934       .  S
O628        C630   1.256       .  A
O628       Al629   1.896       .  S
Al629       O637   1.877   1_565  S
Al629       O639   1.940       .  S
Al629       O638   1.785       .  S
C630        O643   1.261       .  A
C630        C832   1.441       .  S
O631        C641   1.259       .  A
O631       Al633   1.889       .  S
O632        C645   1.258   1_545  A
O632       Al642   1.897   1_545  S
Al633       O646   1.920       .  S
Al633       O643   1.929       .  S
Al633       O638   1.783       .  S
O634        C641   1.270       .  A
O634       Al642   1.950       .  S
O635        C644   1.267       .  A
O635       Al642   1.957   1_545  S
O636       Al642   1.871       .  S
O637        C644   1.254       .  A
O638       Al642   1.789       .  S
O639        C640   1.267       .  A
C640        C833   1.435       .  S
C641        C840   1.442       .  S
C644        C868   1.449       .  S
C645        O646   1.261       .  A
C645        C838   1.435       .  S
O647        C662   1.261       .  A
O647       Al655   1.920       .  S
C648        O658   1.264       .  A
C648        O649   1.254       .  A
C648        C837   1.434       .  S
O649       Al651   1.871       .  S
O650        C652   1.270       .  A
O650       Al651   1.950       .  S
Al651       O659   1.957   1_565  S
Al651       O661   1.897   1_565  S
Al651       O660   1.789       .  S
C652        O665   1.259       .  A
C652        C826   1.442       .  S
O653        C663   1.261       .  A
O653       Al655   1.929       .  S
O654        C667   1.267       .  A
O654       Al664   1.940       .  S
Al655       O668   1.885       .  S
Al655       O665   1.889       .  S
Al655       O660   1.783       .  S
O656        C663   1.256       .  A
O656       Al664   1.896       .  S
O657        C666   1.254       .  A
O657       Al664   1.878   1_545  S
O658       Al664   1.934       .  S
O659        C666   1.267       .  A
O660       Al664   1.785       .  S
O661        C662   1.258   1_545  A
C663        C827   1.441       .  S
C666        C844   1.449       .  S
C667        O668   1.259       .  A
C667        C829   1.435   1_556  S
O669        C684   1.259       .  A
O669       Al677   1.885       .  S
C670        O680   1.254       .  A
C670        O671   1.264       .  A
C670        C823   1.434       .  S
O671       Al673   1.934       .  S
O672        C674   1.256       .  A
O672       Al673   1.896       .  S
Al673       O681   1.878       .  S
Al673       O683   1.940       .  S
Al673       O682   1.785       .  S
C674        O687   1.261       .  A
C674        C817   1.441       .  S
O675        C685   1.259       .  A
O675       Al677   1.889       .  S
O676        C689   1.258       .  A
O676       Al686   1.897       .  S
Al677       O690   1.921       .  S
Al677       O687   1.929       .  S
Al677       O682   1.783       .  S
O678        C685   1.270       .  A
O678       Al686   1.950       .  S
O679        C688   1.267       .  A
O679       Al686   1.957       .  S
O680       Al686   1.871       .  S
O681        C688   1.254       .  A
O682       Al686   1.789       .  S
O683        C684   1.267       .  A
C684        C820   1.435       .  S
C685        C828   1.442       .  S
C688        C886   1.449       .  S
C689        O690   1.261       .  A
C689        C822   1.435       .  S
O691        C706   1.261       .  A
O691       Al699   1.920       .  S
C692        O702   1.264       .  A
C692        O693   1.254       .  A
C692        C821   1.434       .  S
O693       Al695   1.871       .  S
O694        C696   1.270       .  A
O694       Al695   1.950       .  S
Al695       O703   1.957       .  S
Al695       O705   1.897       .  S
Al695       O704   1.789       .  S
C696        O709   1.259       .  A
C696        C815   1.442       .  S
O697        C707   1.261       .  A
O697       Al699   1.929       .  S
O698        C711   1.267       .  A
O698       Al708   1.941       .  S
Al699       O712   1.885       .  S
Al699       O709   1.889       .  S
Al699       O704   1.783       .  S
O700        C707   1.256       .  A
O700       Al708   1.896       .  S
O701        C710   1.254       .  A
O701       Al708   1.878       .  S
O702       Al708   1.934       .  S
O703        C710   1.267       .  A
O704       Al708   1.785       .  S
O705        C706   1.258       .  A
C706        C824   1.435       .  S
C707        C839   1.441       .  S
C710        C854   1.449       .  S
C711        O712   1.259       .  A
C711        C830   1.435       .  S
O713        C728   1.261   1_455  A
O713       Al721   1.920       .  S
C714        O724   1.265       .  A
C714        O715   1.254       .  A
C714        C811   1.434       .  S
O715       Al717   1.872       .  S
O716        C718   1.270       .  A
O716       Al717   1.950   1_455  S
Al717       O725   1.957       .  S
Al717       O727   1.897       .  S
Al717       O726   1.789   1_655  S
C718        O731   1.259       .  A
C718        C831   1.442       .  S
O719        C729   1.261       .  A
O719       Al721   1.929       .  S
O720        C733   1.267       .  A
O720       Al730   1.940       .  S
Al721       O734   1.885       .  S
Al721       O731   1.889       .  S
Al721       O726   1.783       .  S
O722        C729   1.256       .  A
O722       Al730   1.896       .  S
O723        C732   1.254       .  A
O723       Al730   1.878   1_655  S
O724       Al730   1.934   1_655  S
O725        C732   1.267       .  A
O726       Al730   1.785       .  S
O727        C728   1.258       .  A
C728        C813   1.435       .  S
C729        C807   1.441       .  S
C732        C878   1.449       .  S
C733        O734   1.259       .  A
C733        C810   1.435       .  S
O735        C750   1.259       .  A
O735       Al743   1.885       .  S
C736        O746   1.254       .  A
C736        O737   1.265       .  A
C736        C814   1.434       .  S
O737       Al739   1.934   1_655  S
O738        C740   1.256       .  A
O738       Al739   1.896       .  S
Al739       O747   1.878   1_455  S
Al739       O749   1.940       .  S
Al739       O748   1.785       .  S
C740        O753   1.261       .  A
C740        C825   1.441       .  S
O741        C751   1.259       .  A
O741       Al743   1.889       .  S
O742        C755   1.258       .  A
O742       Al752   1.897       .  S
Al743       O756   1.921       .  S
Al743       O753   1.929       .  S
Al743       O748   1.783       .  S
O744        C751   1.270       .  A
O744       Al752   1.950   1_455  S
O745        C754   1.267       .  A
O745       Al752   1.957       .  S
O746       Al752   1.871       .  S
O747        C754   1.254       .  A
O748       Al752   1.789   1_455  S
O749        C750   1.267       .  A
C750        C834   1.435       .  S
C751        C805   1.442       .  S
C754        C850   1.449       .  S
C755        O756   1.261   1_655  A
C755        C812   1.435       .  S
O757        C772   1.259       .  A
O757       Al765   1.885       .  S
C758        O768   1.254       .  A
C758        O759   1.264       .  A
C758        C804   1.434       .  S
O759       Al761   1.934       .  S
O760        C762   1.256       .  A
O760       Al761   1.896       .  S
Al761       O769   1.877       .  S
Al761       O771   1.940       .  S
Al761       O770   1.785       .  S
C762        O775   1.261       .  A
C762        C816   1.441       .  S
O763        C773   1.259       .  A
O763       Al765   1.889       .  S
O764        C777   1.258       .  A
O764       Al774   1.897       .  S
Al765       O778   1.920       .  S
Al765       O775   1.929       .  S
Al765       O770   1.783       .  S
O766        C773   1.270       .  A
O766       Al774   1.950       .  S
O767        C776   1.267       .  A
O767       Al774   1.957       .  S
O768       Al774   1.871       .  S
O769        C776   1.254       .  A
O770       Al774   1.789       .  S
O771        C772   1.267       .  A
C772        C819   1.435       .  S
C773        C808   1.442       .  S
C776        C842   1.449       .  S
C777        O778   1.261       .  A
C777        C801   1.435       .  S
O779        C794   1.261       .  A
O779       Al787   1.920       .  S
C780        O790   1.265       .  A
C780        O781   1.254       .  A
C780        C802   1.434       .  S
O781       Al783   1.871       .  S
O782        C784   1.270       .  A
O782       Al783   1.950       .  S
Al783       O791   1.957       .  S
Al783       O793   1.897       .  S
Al783       O792   1.789       .  S
C784        O797   1.259       .  A
C784        C818   1.442       .  S
O785        C795   1.261       .  A
O785       Al787   1.929       .  S
O786        C799   1.267       .  A
O786       Al796   1.940       .  S
Al787       O800   1.885       .  S
Al787       O797   1.889       .  S
Al787       O792   1.783       .  S
O788        C795   1.256       .  A
O788       Al796   1.896       .  S
O789        C798   1.254       .  A
O789       Al796   1.878       .  S
O790       Al796   1.934       .  S
O791        C798   1.267       .  A
O792       Al796   1.785       .  S
O793        C794   1.258       .  A
C795        C806   1.441       .  S
C798        C864   1.449       .  S
C799        O800   1.259       .  A
C799        C809   1.435   1_556  S
C801        C802   1.205       .  T
C803        C804   1.205       .  T
C805        C806   1.209       .  T
C807        C808   1.209       .  T
C811        C812   1.205       .  T
C815        C816   1.209       .  T
C817        C818   1.209       .  T
C819        C820   1.205       .  T
C821        C822   1.205       .  T
C825        C826   1.209       .  T
C827        C828   1.209       .  T
C831        C832   1.209       .  T
C833        C834   1.205       .  T
C835        C836   1.205       .  T
C837        C838   1.205       .  T
C839        C840   1.209       .  T
C841        C842   1.213       .  T
C843        C844   1.213       .  T
C845        C846   1.205       .  T
C847        C848   1.205       .  T
C849        C850   1.213       .  T
C851        C852   1.209       .  T
C853        C854   1.213       .  T
C855        C856   1.209       .  T
C861        C862   1.205       .  T
C863        C864   1.213       .  T
C865        C866   1.209       .  T
C867        C868   1.213       .  T
C869        C870   1.209       .  T
C871        C872   1.205       .  T
C873        C874   1.205       .  T
C875        C876   1.205       .  T
C877        C878   1.213       .  T
C879        C880   1.209       .  T
C881        C882   1.209       .  T
C885        C886   1.213       .  T
C887        C888   1.209       .  T
C889        C890   1.205       .  T
C891        C892   1.209       .  T
C895        C896   1.205       .  T
