geometry optimzed in LAMMPS
_audit_creation_date              2020-12-01 
_audit_creation_method            'lammps2cif' 
_symmetry_space_group_name_H-M    'P1' 
_symmetry_Int_Tables_number       1 
_symmetry_cell_setting            triclinic 
loop_ 
_symmetry_equiv_pos_as_xyz 
  x,y,z 
_cell_length_a                    36.41118905 
_cell_length_b                    36.52566739903194 
_cell_length_c                    50.20037192073137 
_cell_angle_alpha                 89.94751484882563 
_cell_angle_beta                  90.23516215176952 
_cell_angle_gamma                 90.04617035153157 
loop_ 
_atom_site_label 
_atom_site_type_symbol 
_atom_site_fract_x 
_atom_site_fract_y 
_atom_site_fract_z 
_atom_site_charge 
O1          O  0.07476867  0.60518669  0.66245140    -0.80700
O2          O  0.07592254  0.72554322  0.57525181    -0.65400
O3          O  0.06968025  0.67498288  0.64065124    -1.12000
C4          C  0.95068535  0.64085557  0.61772535     1.06200
O5          O  0.01941637  0.72190444  0.55792440    -0.78600
O6          O  0.99350229  0.73152010  0.60823005    -0.66200
Ni7        Ni  0.10848838  0.64271004  0.65088834     1.34900
C8          C  0.98998933  0.72710234  0.63316281     0.84900
O9          O  0.11711131  0.72437368  0.61882775    -0.79100
O10         O  0.14514565  0.67819699  0.64073273    -0.89400
C11         C  0.05237436  0.73362160  0.55758024     0.84500
O12         O  0.11473977  0.61755413  0.61774526    -0.67600
O13         O  0.95128958  0.66993357  0.60373083    -0.86900
C14         C  0.11713541  0.63227994  0.59494853     0.85300
C15         C  0.14537260  0.70976138  0.62970184     1.06900
H16         H  0.03709524  0.64973536  0.58685472     0.38700
O17         O  0.03036584  0.66996101  0.59822748    -1.09500
O18         O  0.99764122  0.69679924  0.64529001    -0.66200
Ni19       Ni  0.02424334  0.65200090  0.63388373     1.26300
O20         O  0.10401280  0.66371960  0.58989853    -0.66400
O21         O  0.97974573  0.62650393  0.62663167    -0.78700
C22         C  0.04709353  0.61126688  0.67716321     0.84700
O23         O  0.02251724  0.63389600  0.66976259    -0.65900
Ni24       Ni  0.98898105  0.69435033  0.58245415     1.27400
Ni25       Ni  0.07350256  0.69892592  0.60765987     1.26100
H26         H  0.06679836  0.69311761  0.65448507     0.39300
O27         O  0.09990498  0.58146674  0.86499865    -0.80700
O28         O  0.22534124  0.58177866  0.94926004    -0.65400
O29         O  0.17017664  0.57511710  0.88565792    -1.12000
C30         C  0.13405237  0.45830230  0.91157924     1.06200
O31         O  0.21861247  0.52721932  0.96876273    -0.78600
O32         O  0.22559622  0.49856825  0.91887253    -0.66200
Ni33       Ni  0.13858514  0.61436957  0.87585603     1.34900
C34         C  0.22026592  0.49514600  0.89396125     0.84900
O35         O  0.22289248  0.62121672  0.90499338    -0.79100
O36         O  0.17526768  0.65026566  0.88546059    -0.89400
C37         C  0.23254007  0.55911828  0.96764721     0.84500
O38         O  0.11507291  0.62060959  0.90957581    -0.67600
O39         O  0.16318342  0.45924423  0.92557377    -0.86900
C40         C  0.13176670  0.62539107  0.93150174     0.85300
C41         C  0.20770612  0.64989524  0.89530277     1.06900
H42         H  0.14629427  0.54627965  0.94049926     0.38700
O43         O  0.16577967  0.53806363  0.92895798    -1.09500
O44         O  0.18974113  0.50310267  0.88217464    -0.66200
Ni45       Ni  0.14600817  0.53080558  0.89376276     1.26300
O46         O  0.16359953  0.61248718  0.93589292    -0.66400
O47         O  0.11975534  0.48702149  0.90213779    -0.78700
C48         C  0.10470533  0.55327848  0.85058348     0.84700
O49         O  0.12655154  0.52811946  0.85817203    -0.65900
Ni50       Ni  0.18926488  0.49681814  0.94544443     1.27400
Ni51       Ni  0.19629676  0.57931803  0.91782657     1.26100
H52         H  0.18740863  0.57124748  0.87133495     0.39300
O53         O  0.44782774  0.92720490  0.66064787    -0.80700
O54         O  0.45046762  0.80488243  0.57525060    -0.65400
O55         O  0.45316139  0.85773493  0.63944595    -1.12000
C56         C  0.57360786  0.89039812  0.61984979     1.06200
O57         O  0.50590384  0.81226894  0.55710404    -0.78600
O58         O  0.53020030  0.80090692  0.60797581    -0.66200
Ni59       Ni  0.41422402  0.89054415  0.64740179     1.34900
C60         C  0.53079074  0.80421084  0.63317982     0.84900
O61         O  0.40741202  0.80722014  0.61772069    -0.79100
O62         O  0.37779075  0.85547765  0.63561998    -0.89400
C63         C  0.47366597  0.79867613  0.55713895     0.84500
O64         O  0.41224935  0.91490370  0.61362016    -0.67600
O65         O  0.57293258  0.86194033  0.60525589    -0.86900
C66         C  0.40851746  0.89850369  0.59154389     0.85300
C67         C  0.37831553  0.82285449  0.62635566     1.06900
H68         H  0.48716097  0.88268930  0.58665275     0.38700
O69         O  0.49402037  0.86247355  0.59806266    -1.09500
O70         O  0.52368555  0.83443081  0.64551648    -0.66200
Ni71       Ni  0.49905429  0.88016076  0.63387511     1.26300
O72         O  0.42052344  0.86638057  0.58776180    -0.66400
O73         O  0.54448342  0.90496880  0.62825996    -0.78700
C74         C  0.47423487  0.92019867  0.67654093     0.84700
O75         O  0.49927398  0.89774985  0.66981815    -0.65900
Ni76       Ni  0.53581993  0.83868108  0.58276880     1.27400
Ni77       Ni  0.45114220  0.83275317  0.60698617     1.26100
H78         H  0.45501075  0.84012256  0.65376110     0.39300
O79         O  0.41950001  0.95626723  0.86577084    -0.80700
O80         O  0.30008313  0.95508748  0.95306788    -0.65400
O81         O  0.34995767  0.95986988  0.88743333    -1.12000
C82         C  0.38011255  0.08091906  0.90675108     1.06200
O83         O  0.30284026  0.01216334  0.96893587    -0.78600
O84         O  0.29138480  0.03608430  0.91782741    -0.66200
Ni85       Ni  0.38284155  0.92184027  0.87744263     1.34900
C86         C  0.29544037  0.03783970  0.89270513     0.84900
O87         O  0.30197799  0.91192363  0.91052005    -0.79100
O88         O  0.34793947  0.88495060  0.88775208    -0.89400
C89         C  0.29182269  0.97915506  0.97016094     0.84500
O90         O  0.40822070  0.91596240  0.91064578    -0.67600
O91         O  0.35183654  0.07946819  0.92147198    -0.86900
C92         C  0.39406250  0.91409998  0.93364893     0.85300
C93         C  0.31673370  0.88411018  0.89929211     1.06900
H94         H  0.37512354  0.99536992  0.94001212     0.38700
O95         O  0.35448938  0.00103378  0.92864303    -1.09500
O96         O  0.32581026  0.03032944  0.88076596    -0.66200
Ni97       Ni  0.37167559  0.00626233  0.89264448     1.26300
O98         O  0.36283127  0.92766794  0.93894509    -0.66400
O99         O  0.39541100  0.05231556  0.89805317    -0.78700
C100        C  0.41200096  0.98228644  0.84984014     0.84700
O101        O  0.38897291  0.00673360  0.85658945    -0.65900
Ni102      Ni  0.32897823  0.04214893  0.94352598     1.27400
Ni103      Ni  0.32649988  0.95666756  0.92055295     1.26100
H104        H  0.33129527  0.96166727  0.87368404     0.39300
O105        O  0.60052745  0.45487207  0.66100873    -0.80700
O106        O  0.72620009  0.45404665  0.57886730    -0.65400
O107        O  0.67133184  0.45976048  0.64224426    -1.12000
C108        C  0.63817664  0.57836360  0.61833476     1.06200
O109        O  0.71890531  0.50898978  0.55981779    -0.78600
O110        O  0.72897499  0.53472495  0.61049527    -0.66200
Ni111      Ni  0.63888579  0.42106216  0.65161550     1.34900
C112        C  0.72409176  0.53733558  0.63547880     0.84900
O113        O  0.72280558  0.41260709  0.62252795    -0.79100
O114        O  0.67543778  0.38474112  0.64321558    -0.89400
C115        C  0.73226645  0.47680344  0.56034360     0.84500
O116        O  0.61614004  0.41393107  0.61762179    -0.67600
O117        O  0.66817720  0.57749527  0.60547951    -0.86900
C118        C  0.63218184  0.41135363  0.59535555     0.85300
C119        C  0.70760027  0.38442930  0.63305237     1.06900
H120        H  0.64820740  0.49102729  0.58781668     0.38700
O121        O  0.66788434  0.49834837  0.59964638    -1.09500
O122        O  0.69303062  0.53096919  0.64696920    -0.66200
Ni123      Ni  0.64828836  0.50491206  0.63461084     1.26300
O124        O  0.66385929  0.42464747  0.59122893    -0.66400
O125        O  0.62302419  0.54940920  0.62653383    -0.78700
C126        C  0.60599019  0.48187401  0.67646451     0.84700
O127        O  0.62855735  0.50688911  0.66990680    -0.65900
Ni128      Ni  0.69216286  0.53973971  0.58427448     1.27400
Ni129      Ni  0.69739690  0.45592618  0.61024847     1.26100
H130        H  0.68866655  0.46291068  0.65668587     0.39300
O131        O  0.57305754  0.42856728  0.86486130    -0.80700
O132        O  0.57380943  0.31095946  0.95344276    -0.65400
O133        O  0.56790614  0.35938829  0.88718125    -1.12000
C134        C  0.44877327  0.39460186  0.90919278     1.06200
O135        O  0.51716922  0.31426452  0.97012147    -0.78600
O136        O  0.48932144  0.30434981  0.91991934    -0.66200
Ni137      Ni  0.60681192  0.39131124  0.87673586     1.34900
C138        C  0.48676932  0.30806293  0.89479980     0.84900
O139        O  0.61539730  0.31076990  0.91029642    -0.79100
O140        O  0.64339012  0.35597652  0.88740945    -0.89400
C141        C  0.55020026  0.30297387  0.97095528     0.84500
O142        O  0.61361832  0.41727890  0.90953504    -0.67600
O143        O  0.44963588  0.36684635  0.92445694    -0.86900
C144        C  0.61572827  0.40315431  0.93255029     0.85300
C145        C  0.64367965  0.32496460  0.89925054     1.06900
H146        H  0.53520401  0.38628274  0.94010540     0.38700
O147        O  0.52835926  0.36564881  0.92911251    -1.09500
O148        O  0.49578537  0.33759082  0.88223006    -0.66200
Ni149      Ni  0.52235076  0.38260314  0.89305606     1.26300
O150        O  0.60200656  0.37211816  0.93798180    -0.66400
O151        O  0.47753954  0.40812423  0.89921757    -0.78700
C152        C  0.54583106  0.42221860  0.84962204     0.84700
O153        O  0.52103489  0.39971913  0.85680436    -0.65900
Ni154      Ni  0.48700947  0.34209533  0.94549247     1.27400
Ni155      Ni  0.57155833  0.33644418  0.92056686     1.26100
H156        H  0.56509513  0.34081587  0.87363113     0.39300
O157        O  0.92529438  0.07703892  0.66431847    -0.80700
O158        O  0.79889601  0.08341534  0.58104044    -0.65400
O159        O  0.85413181  0.07503466  0.64452844    -1.12000
C160        C  0.88350074  0.95527104  0.61969664     1.06200
O161        O  0.80112403  0.02753359  0.56303405    -0.78600
O162        O  0.79327871  0.00004418  0.61325524    -0.66200
Ni163      Ni  0.88863169  0.11241505  0.65355637     1.34900
C164        C  0.79870436  0.99724072  0.63818623     0.84900
O165        O  0.80473062  0.12421442  0.62466076    -0.79100
O166        O  0.85388067  0.15041185  0.64446142    -0.89400
C167        C  0.78994594  0.06053236  0.56321479     0.84500
O168        O  0.91167381  0.11767312  0.61936735    -0.67600
O169        O  0.85388502  0.95706913  0.60623920    -0.86900
C170        C  0.89506770  0.12149911  0.59724840     0.85300
C171        C  0.82134055  0.15187554  0.63478586     1.06900
H172        H  0.87512208  0.04267642  0.59017470     0.38700
O173        O  0.85524570  0.03620928  0.60198090    -1.09500
O174        O  0.82982254  0.00410789  0.64956774    -0.66200
Ni175      Ni  0.87503768  0.02890631  0.63707258     1.26300
O176        O  0.86266746  0.10972767  0.59345298    -0.66400
O177        O  0.89855270  0.98353547  0.62926529    -0.78700
C178        C  0.91819078  0.05007192  0.67953798     0.84700
O179        O  0.89471030  0.02615574  0.67244034    -0.65900
Ni180      Ni  0.82909819  0.99588049  0.58640182     1.27400
Ni181      Ni  0.82794270  0.07995764  0.61246162     1.26100
H182        H  0.83685742  0.07273885  0.65899819     0.39300
O183        O  0.94603221  0.10892501  0.86761724    -0.80700
O184        O  0.94963859  0.23162700  0.95394896    -0.65400
O185        O  0.95175621  0.17836316  0.88966206    -1.12000
C186        C  0.07196734  0.14601762  0.90931774     1.06200
O187        O  0.00587922  0.22524645  0.97139281    -0.78600
O188        O  0.02901118  0.23570045  0.92042222    -0.66200
Ni189      Ni  0.91285556  0.14541808  0.88151744     1.34900
C190        C  0.02999399  0.23167625  0.89530301     0.84900
O191        O  0.90594182  0.22843018  0.91155344    -0.79100
O192        O  0.87636521  0.17993773  0.89382096    -0.89400
C193        C  0.97373201  0.23890547  0.97143098     0.84500
O194        O  0.91231608  0.12050590  0.91505011    -0.67600
O195        O  0.07174738  0.17482322  0.92351382    -0.86900
C196        C  0.90874087  0.13610865  0.93742503     0.85300
C197        C  0.87684660  0.21260074  0.90299602     1.06900
H198        H  0.98661085  0.15393820  0.94273319     0.38700
O199        O  0.99303548  0.17406892  0.93114748    -1.09500
O200        O  0.02251145  0.20125585  0.88336789    -0.66200
Ni201      Ni  0.99758285  0.15599042  0.89543699     1.26300
O202        O  0.91968511  0.16868708  0.94154724    -0.66400
O203        O  0.04266801  0.13109808  0.90146806    -0.78700
C204        C  0.97324165  0.11549777  0.85251136     0.84700
O205        O  0.99795483  0.13815513  0.85958909    -0.65900
Ni206      Ni  0.03512701  0.19835560  0.94594769     1.27400
Ni207      Ni  0.94980986  0.20322191  0.92228757     1.26100
H208        H  0.95356377  0.19603530  0.87538785     0.39300
O209        O  0.80671653  0.51261454  0.05722663    -0.80700
O210        O  0.89057769  0.50633303  0.17108960    -0.65400
O211        O  0.85724251  0.50048162  0.09857741    -1.12000
C212        C  0.81728137  0.38486592  0.12631653     1.06200
O213        O  0.91989068  0.45447663  0.16369027    -0.78600
O214        O  0.90993742  0.41874422  0.11684476    -0.66200
Ni215      Ni  0.83359078  0.54203414  0.08267592     1.34900
C216        C  0.89551252  0.41594736  0.09392381     0.84900
O217        O  0.89944896  0.55058041  0.12913765    -0.79100
O218        O  0.85724476  0.57878348  0.10478559    -0.89400
C219        C  0.91297114  0.48165724  0.17866287     0.84500
O220        O  0.79535128  0.53746886  0.10765183    -0.67600
O221        O  0.84921369  0.38466381  0.13698573    -0.86900
C222        C  0.79864940  0.53912567  0.13282778     0.85300
C223        C  0.88536515  0.57945181  0.11983806     1.06900
H224        H  0.83267128  0.46212644  0.15384889     0.38700
O225        O  0.85109680  0.45998335  0.14013433    -1.09500
O226        O  0.86334459  0.42750076  0.08878690    -0.66200
Ni227      Ni  0.82769334  0.45740483  0.10682679     1.26300
O228        O  0.82848454  0.53107573  0.14551479    -0.66400
O229        O  0.80199086  0.41365288  0.11691293    -0.78700
C230        C  0.79367688  0.48031950  0.05677476     0.84700
O231        O  0.80092941  0.45642306  0.07430020    -0.65900
Ni232      Ni  0.88351019  0.42116544  0.14963193     1.27400
Ni233      Ni  0.87403689  0.50562050  0.13474412     1.26100
H234        H  0.87793199  0.49394131  0.08757879     0.39300
O235        O  0.00377894  0.30999054  0.47088743    -0.80700
O236        O  0.00000137  0.39708691  0.35863526    -0.65400
O237        O  0.99289718  0.36127826  0.43032172    -1.12000
C238        C  0.87676536  0.32315758  0.39970505     1.06200
O239        O  0.94866952  0.42671710  0.36692443    -0.78600
O240        O  0.90877818  0.41441814  0.41185515    -0.66200
Ni241      Ni  0.03418968  0.33645090  0.44573831     1.34900
C242        C  0.90608847  0.39909527  0.43443799     0.84900
O243        O  0.04427012  0.40369214  0.40107775    -0.79100
O244        O  0.07192759  0.35971214  0.42388315    -0.89400
C245        C  0.97544666  0.41991238  0.35154634     0.84500
O246        O  0.02812987  0.29925642  0.42007684    -0.67600
O247        O  0.87762884  0.35467287  0.38862780    -0.86900
C248        C  0.03055836  0.30351464  0.39502392     0.85300
C249        C  0.07316281  0.38854393  0.40964399     1.06900
H250        H  0.95506944  0.33884092  0.37440527     0.38700
O251        O  0.95276657  0.35689875  0.38835295    -1.09500
O252        O  0.91933295  0.36767407  0.43926735    -0.66200
Ni253      Ni  0.94927236  0.33253617  0.42121766     1.26300
O254        O  0.02371127  0.33397998  0.38298408    -0.66400
O255        O  0.90485141  0.30780292  0.41037553    -0.78700
C256        C  0.97099621  0.29779140  0.47132460     0.84700
O257        O  0.94732749  0.30531943  0.45357000    -0.65900
Ni258      Ni  0.91445185  0.38973788  0.37846180     1.27400
Ni259      Ni  0.99872888  0.37922495  0.39458954     1.26100
H260        H  0.98649623  0.38154701  0.44175596     0.39300
O261        O  0.71704191  0.02625447  0.05954505    -0.80700
O262        O  0.62924711  0.03074303  0.17151129    -0.65400
O263        O  0.66366804  0.03837921  0.09942731    -1.12000
C264        C  0.70602173  0.15204361  0.13006227     1.06200
O265        O  0.60102568  0.08345356  0.16491542    -0.78600
O266        O  0.61268234  0.12219495  0.11905686    -0.66200
Ni267      Ni  0.68632940  0.99682095  0.08263141     1.34900
C268        C  0.62773795  0.12602498  0.09647636     0.84900
O269        O  0.61967482  0.98811287  0.12885532    -0.79100
O270        O  0.65914300  0.95996796  0.10229936    -0.89400
C271        C  0.60731172  0.05554158  0.17941475     0.84500
O272        O  0.72349039  0.99635972  0.10877748    -0.67600
O273        O  0.67441736  0.15225398  0.14106634    -0.86900
C274        C  0.71990090  0.99463762  0.13388678     0.85300
C275        C  0.63183312  0.95945752  0.11797309     1.06900
H276        H  0.68861700  0.07391808  0.15558477     0.38700
O277        O  0.67023271  0.07711563  0.14183171    -1.09500
O278        O  0.65904150  0.11255055  0.09126052    -0.66200
Ni279      Ni  0.69379749  0.08068722  0.10872154     1.26300
O280        O  0.69076669  0.00486114  0.14641078    -0.66400
O281        O  0.72048011  0.12348245  0.11977158    -0.78700
C282        C  0.72935388  0.05885618  0.05936598     0.84700
O283        O  0.72025381  0.08274075  0.07633607    -0.65900
Ni284      Ni  0.63870070  0.11631532  0.15212739     1.27400
Ni285      Ni  0.64625313  0.03222201  0.13538733     1.26100
H286        H  0.64322367  0.04589583  0.08839289     0.39300
O287        O  0.51909915  0.22416637  0.47017918    -0.80700
O288        O  0.52004716  0.13492938  0.35931181    -0.65400
O289        O  0.52950751  0.17329986  0.42997163    -1.12000
C290        C  0.64298852  0.21267852  0.39724988     1.06200
O291        O  0.57217825  0.10645110  0.36756482    -0.78600
O292        O  0.61265187  0.12154976  0.41213087    -0.66200
Ni293      Ni  0.48811267  0.19734554  0.44561271     1.34900
C294        C  0.61718198  0.13839467  0.43399558     0.84900
O295        O  0.47821035  0.12902246  0.40266116    -0.79100
O296        O  0.45010476  0.17353217  0.42424696    -0.89400
C297        C  0.54471948  0.11223186  0.35239590     0.84500
O298        O  0.49259044  0.23431925  0.41960290    -0.67600
O299        O  0.64266914  0.18048267  0.38725532    -0.86900
C300        C  0.48976736  0.22960932  0.39458468     0.85300
C301        C  0.44921102  0.14421078  0.41064065     1.06900
H302        H  0.56454043  0.19424939  0.37281231     0.38700
O303        O  0.56768519  0.17701026  0.38726402    -1.09500
O304        O  0.60399958  0.17004337  0.43807457    -0.66200
Ni305      Ni  0.57165856  0.20298186  0.41934078     1.26300
O306        O  0.49637930  0.19884103  0.38287105    -0.66400
O307        O  0.61461126  0.22841929  0.40697011    -0.78700
C308        C  0.55112349  0.23814288  0.46929791     0.84700
O309        O  0.57369851  0.23197622  0.45070367    -0.65900
Ni310      Ni  0.60619476  0.14439920  0.37803930     1.27400
Ni311      Ni  0.52258610  0.15413861  0.39480062     1.26100
H312        H  0.53713283  0.15364997  0.44163793     0.39300
O313        O  0.50055112  0.72431519  0.05915722    -0.80700
O314        O  0.49984567  0.63679014  0.17141217    -0.65400
O315        O  0.49016489  0.67361486  0.10007440    -1.12000
C316        C  0.37701161  0.71479705  0.13273310     1.06200
O317        O  0.44715020  0.60890196  0.16381868    -0.78600
O318        O  0.40592451  0.62285991  0.11984050    -0.66200
Ni319      Ni  0.53135637  0.69708757  0.08363897     1.34900
C320        C  0.40292573  0.63818382  0.09725970     0.84900
O321        O  0.54144599  0.62956582  0.12781352    -0.79100
O322        O  0.56935791  0.67295149  0.10470470    -0.89400
C323        C  0.47500446  0.61435059  0.17864695     0.84500
O324        O  0.52770735  0.73448483  0.10927218    -0.67600
O325        O  0.37722370  0.68321891  0.14377041    -0.86900
C326        C  0.53081840  0.73047737  0.13431926     0.85300
C327        C  0.57027080  0.64379898  0.11853352     1.06900
H328        H  0.45592117  0.69654048  0.15694109     0.38700
O329        O  0.45238074  0.67876011  0.14291473    -1.09500
O330        O  0.41619670  0.66962270  0.09241781    -0.66200
Ni331      Ni  0.44816548  0.70361665  0.11033179     1.26300
O332        O  0.52405151  0.70012284  0.14662718    -0.66400
O333        O  0.40533966  0.72960773  0.12220493    -0.78700
C334        C  0.46859369  0.73833289  0.06006017     0.84700
O335        O  0.44585158  0.73166130  0.07847414    -0.65900
Ni336      Ni  0.41351265  0.64702712  0.15324387     1.27400
Ni337      Ni  0.49727265  0.65529234  0.13556487     1.26100
H338        H  0.48243351  0.65362125  0.08877339     0.39300
O339        O  0.30716744  0.52407253  0.47042631    -0.80700
O340        O  0.39450772  0.52731608  0.35866159    -0.65400
O341        O  0.35701557  0.53554016  0.42967540    -1.12000
C342        C  0.31477659  0.64801902  0.39664638     1.06200
O343        O  0.42249443  0.57957630  0.36702419    -0.78600
O344        O  0.40770700  0.61792863  0.41214670    -0.66200
Ni345      Ni  0.33411108  0.49381626  0.44568058     1.34900
C346        C  0.39115707  0.62178563  0.43413172     0.84900
O347        O  0.40205570  0.48537912  0.40214533    -0.79100
O348        O  0.35832129  0.45657466  0.42423262    -0.89400
C349        C  0.41678986  0.55241935  0.35169675     0.84500
O350        O  0.29635078  0.49737365  0.41998290    -0.67600
O351        O  0.34755921  0.64851115  0.38753971    -0.86900
C352        C  0.30053965  0.49471268  0.39491829     0.85300
C353        C  0.38758788  0.45623866  0.41053477     1.06900
H354        H  0.33468665  0.57053347  0.37255240     0.38700
O355        O  0.35201386  0.57374870  0.38700291    -1.09500
O356        O  0.35902366  0.60941017  0.43793550    -0.66200
Ni357      Ni  0.32622992  0.57700274  0.41918342     1.26300
O358        O  0.33102046  0.50214858  0.38288594    -0.66400
O359        O  0.29972476  0.61946808  0.40675342    -0.78700
C360        C  0.29221760  0.55554670  0.46948206     0.84700
O361        O  0.29741354  0.57816831  0.45069803    -0.65900
Ni362      Ni  0.38424517  0.61273838  0.37806975     1.27400
Ni363      Ni  0.37577566  0.52914645  0.39437132     1.26100
H364        H  0.37682150  0.54347051  0.44116916     0.39300
O365        O  0.01859138  0.81075203  0.05754969    -0.80700
O366        O  0.01968452  0.89998609  0.16900862    -0.65400
O367        O  0.02835838  0.86341862  0.09758098    -1.12000
C368        C  0.14446212  0.82732199  0.12796894     1.06200
O369        O  0.07178094  0.92964136  0.16244562    -0.78600
O370        O  0.10961775  0.91854265  0.11606751    -0.66200
Ni371      Ni  0.98761685  0.83780126  0.08186582     1.34900
C372        C  0.11365030  0.90289374  0.09371733     0.84900
O373        O  0.97648488  0.90576998  0.12576982    -0.79100
O374        O  0.94938547  0.86172999  0.10256605    -0.89400
C375        C  0.04387723  0.92281334  0.17684050     0.84500
O376        O  0.99275887  0.80116811  0.10814121    -0.67600
O377        O  0.14355298  0.85930901  0.13828889    -0.86900
C378        C  0.99021986  0.80581350  0.13314736     0.85300
C379        C  0.94794440  0.89097913  0.11624224     1.06900
H380        H  0.06556299  0.84205961  0.15414173     0.38700
O381        O  0.06786603  0.85994512  0.14004108    -1.09500
O382        O  0.10190059  0.87076955  0.08923483    -0.66200
Ni383      Ni  0.07196848  0.83539146  0.10729091     1.26300
O384        O  0.99688274  0.83650659  0.14490454    -0.66400
O385        O  0.11611190  0.81106639  0.11858407    -0.78700
C386        C  0.05180645  0.79997462  0.05724847     0.84700
O387        O  0.07495332  0.80838997  0.07509955    -0.65900
Ni388      Ni  0.10607296  0.89334979  0.14952512     1.27400
Ni389      Ni  0.02187235  0.88174888  0.13313657     1.26100
H390        H  0.03473918  0.88360804  0.08604610     0.39300
O391        O  0.21850714  0.00736151  0.46799444    -0.80700
O392        O  0.12950617  0.00631579  0.35650189    -0.65400
O393        O  0.16613631  0.99760927  0.42798843    -1.12000
C394        C  0.20289021  0.88165416  0.39637796     1.06200
O395        O  0.09938483  0.95529776  0.36486957    -0.78600
O396        O  0.11159128  0.91373775  0.40929895    -0.66200
Ni397      Ni  0.19114146  0.03838213  0.44398978     1.34900
C398        C  0.12694594  0.91078061  0.43193392     0.84900
O399        O  0.12354799  0.04944370  0.39932179    -0.79100
O400        O  0.16671701  0.07647008  0.42354922    -0.89400
C401        C  0.10613063  0.98218922  0.34952718     0.84500
O402        O  0.22814956  0.03524572  0.41786004    -0.67600
O403        O  0.17119873  0.88285226  0.38534829    -0.86900
C404        C  0.22340647  0.03834039  0.39285292     0.85300
C405        C  0.13804183  0.07786045  0.40909016     1.06900
H406        H  0.18796205  0.96067205  0.37191468     0.38700
O407        O  0.16983121  0.95826476  0.38581463    -1.09500
O408        O  0.15847686  0.92397997  0.43674837    -0.66200
Ni409      Ni  0.19406158  0.95375097  0.41872099     1.26300
O410        O  0.19312059  0.03000764  0.38082365    -0.66400
O411        O  0.21822921  0.90930499  0.40759316    -0.78700
C412        C  0.22904287  0.97420304  0.46874382     0.84700
O413        O  0.22072421  0.95076398  0.45117188    -0.65900
Ni414      Ni  0.13624945  0.92042342  0.37585347     1.27400
Ni415      Ni  0.14792486  0.00428096  0.39236928     1.26100
H416        H  0.14571403  0.99120292  0.43931480     0.39300
C417        C  0.05948796  0.97413699  0.23628551     0.20600
C418        C  0.08113337  0.99657964  0.25285485    -0.39300
C419        C  0.07753042  0.99073796  0.28037205     0.19500
C420        C  0.05400734  0.96448793  0.29053945     0.22200
C421        C  0.03201760  0.94235882  0.27399382    -0.39800
C422        C  0.03565823  0.94816390  0.24646579     0.21000
N423        N  0.06254086  0.97032738  0.20976199    -0.33100
C424        C  0.04087073  0.94156710  0.20285948    -0.10700
C425        C  0.02300043  0.92748182  0.22521402    -0.29500
N426        N  0.05947039  0.96044069  0.31685823    -0.46100
C427        C  0.08682947  0.98397414  0.32361432    -0.05300
C428        C  0.09842542  0.00385148  0.30140980    -0.22700
H429        H  0.10124536  0.01539207  0.24483700     0.19100
H430        H  0.01524641  0.92046079  0.28192245     0.17900
H431        H  0.00652211  0.90284670  0.22623937     0.14200
H432        H  0.12144709  0.02254906  0.30029458     0.14000
H433        H  0.08081979  0.98438149  0.19744007     0.32200
H434        H  0.04725102  0.94079893  0.32910523     0.35000
C435        C  0.22772128  0.78690192  0.39584944     0.20600
C436        C  0.22158659  0.74882383  0.39566798    -0.39300
C437        C  0.25324116  0.72684959  0.39595038     0.19500
C438        C  0.28810437  0.74196238  0.39587200     0.22200
C439        C  0.29419711  0.77990578  0.39641070    -0.39800
C440        C  0.26265607  0.80180329  0.39664854     0.21000
N441        N  0.20238382  0.81358118  0.39557326    -0.33100
C442        C  0.22121741  0.84567393  0.39659788    -0.10700
C443        C  0.25896693  0.83945937  0.39746376    -0.29500
N444        N  0.31367363  0.71564779  0.39579937    -0.46100
C445        C  0.29530842  0.68335618  0.39629338    -0.05300
C446        C  0.25737616  0.68910232  0.39647390    -0.22700
H447        H  0.19422358  0.73722161  0.39546528     0.19100
H448        H  0.32155775  0.79150295  0.39676674     0.17900
H449        H  0.28069075  0.85967958  0.39812729     0.14200
H450        H  0.23590030  0.66860514  0.39677594     0.14000
H451        H  0.17389799  0.81018073  0.39498188     0.32200
H452        H  0.34211621  0.71946908  0.39591042     0.35000
C453        C  0.29896569  0.77373979  0.12704955     0.20600
C454        C  0.27917959  0.80665731  0.12661874    -0.39300
C455        C  0.24081071  0.80307973  0.12538630     0.19500
C456        C  0.22337504  0.76940504  0.12396649     0.22200
C457        C  0.24314380  0.73651598  0.12450204    -0.39800
C458        C  0.28141979  0.74008111  0.12645154     0.21000
N459        N  0.33561893  0.76953006  0.12920758    -0.33100
C460        C  0.34112917  0.73290141  0.13058960    -0.10700
C461        C  0.30805450  0.71374974  0.12889807    -0.29500
N462        N  0.18662456  0.77344704  0.12390436    -0.46100
C463        C  0.18074851  0.80993932  0.12596819    -0.05300
C464        C  0.21383040  0.82925533  0.12672402    -0.22700
H465        H  0.29257403  0.83306358  0.12793192     0.19100
H466        H  0.22968180  0.71008497  0.12424217     0.17900
H467        H  0.30411556  0.68437041  0.12924984     0.14200
H468        H  0.21758410  0.85855076  0.12855747     0.14000
H469        H  0.35547265  0.79014792  0.13019872     0.32200
H470        H  0.16686973  0.75269705  0.12355455     0.35000
C471        C  0.48247032  0.58720431  0.24676465     0.20600
C472        C  0.48892676  0.59357146  0.27396502    -0.39300
C473        C  0.46802940  0.57245593  0.29175765     0.19500
C474        C  0.44261982  0.54675717  0.28322432     0.22200
C475        C  0.43607554  0.54045299  0.25601460    -0.39800
C476        C  0.45690275  0.56166090  0.23821789     0.21000
N477        N  0.49508791  0.60711096  0.22610043    -0.33100
C478        C  0.47689826  0.59463232  0.20430354    -0.10700
C479        C  0.45329044  0.56594120  0.21108756    -0.29500
N480        N  0.42314344  0.53365439  0.30394535    -0.46100
C481        C  0.43582667  0.55160989  0.32576832    -0.05300
C482        C  0.46411886  0.57565773  0.31891893    -0.22700
H483        H  0.50726462  0.61496619  0.28078732     0.19100
H484        H  0.41475296  0.52199751  0.24919547     0.17900
H485        H  0.43348714  0.55244942  0.19828493     0.14200
H486        H  0.47771078  0.59529347  0.33174917     0.14000
H487        H  0.51225663  0.62999572  0.22715261     0.32200
H488        H  0.40049709  0.51612259  0.30296061     0.35000
C489        C  0.35625311  0.12314367  0.39205363     0.20600
C490        C  0.31841042  0.12919733  0.38853341    -0.39300
C491        C  0.29746044  0.09855484  0.38079420     0.19500
C492        C  0.31301423  0.06440561  0.37708808     0.22200
C493        C  0.35096913  0.05857263  0.38012394    -0.39800
C494        C  0.37189905  0.08920424  0.38764687     0.21000
N495        N  0.38152513  0.14694427  0.40136168    -0.33100
C496        C  0.41358731  0.12808420  0.40263734    -0.10700
C497        C  0.40867449  0.09205612  0.39403720    -0.29500
N498        N  0.28677100  0.03845827  0.37564721    -0.46100
C499        C  0.25410216  0.05579554  0.37868963    -0.05300
C500        C  0.25988986  0.09353029  0.38122583    -0.22700
H501        H  0.30583455  0.15526221  0.39315249     0.19100
H502        H  0.36301075  0.03160178  0.37839515     0.17900
H503        H  0.42914466  0.07062602  0.39312257     0.14200
H504        H  0.23988893  0.11355491  0.38767004     0.14000
H505        H  0.37726722  0.17432523  0.40648047     0.32200
H506        H  0.29113602  0.01023273  0.37677278     0.35000
C507        C  0.40910871  0.36421763  0.39144662     0.20600
C508        C  0.40242790  0.32691924  0.38661222    -0.39300
C509        C  0.43334726  0.30556982  0.38042610     0.19500
C510        C  0.46834754  0.32023591  0.37942998     0.22200
C511        C  0.47491381  0.35772712  0.38379536    -0.39800
C512        C  0.44395239  0.37912165  0.38969524     0.21000
N513        N  0.38482499  0.38952246  0.39967838    -0.33100
C514        C  0.40420880  0.42094473  0.40285934    -0.10700
C515        C  0.44117064  0.41560808  0.39661084    -0.29500
N516        N  0.49361603  0.29336305  0.37900546    -0.46100
C517        C  0.47491982  0.26120977  0.38000636    -0.05300
C518        C  0.43713367  0.26798318  0.38017710    -0.22700
H519        H  0.37546266  0.31494228  0.38913381     0.19100
H520        H  0.50241114  0.36900408  0.38415344     0.17900
H521        H  0.46314199  0.43554866  0.39757602     0.14200
H522        H  0.41574606  0.24836708  0.38476091     0.14000
H523        H  0.35673571  0.38572355  0.40282562     0.32200
H524        H  0.52180478  0.29674829  0.38212531     0.35000
C525        C  0.81015707  0.96954042  0.14749373     0.20600
C526        C  0.84797971  0.97614953  0.14436629    -0.39300
C527        C  0.86920070  0.94619378  0.13596854     0.19500
C528        C  0.85384149  0.91235584  0.13055701     0.22200
C529        C  0.81610547  0.90565594  0.13384064    -0.39800
C530        C  0.79499261  0.93544965  0.14275226     0.21000
N531        N  0.78355495  0.99478476  0.15063468    -0.33100
C532        C  0.75100930  0.97704857  0.14756694    -0.10700
C533        C  0.75737384  0.93968482  0.14342164    -0.29500
N534        N  0.87960370  0.88878558  0.12189771    -0.46100
C535        C  0.91181161  0.90751738  0.12227481    -0.05300
C536        C  0.90635408  0.94347747  0.13088449    -0.22700
H537        H  0.85981710  0.00304253  0.14729488     0.19100
H538        H  0.80381904  0.87955164  0.12881367     0.17900
H539        H  0.73741826  0.91972076  0.13663576     0.14200
H540        H  0.92687739  0.96468486  0.13328282     0.14000
H541        H  0.78739439  0.02313322  0.15054420     0.32200
H542        H  0.87569278  0.86135860  0.11672061     0.35000
C543        C  0.55286325  0.82143682  0.14811390     0.20600
C544        C  0.54581784  0.85915900  0.14509611    -0.39300
C545        C  0.57609479  0.88101704  0.13796915     0.19500
C546        C  0.61046572  0.86617669  0.13351786     0.22200
C547        C  0.61758143  0.82869981  0.13685248    -0.39800
C548        C  0.58760366  0.80705042  0.14461954     0.21000
N549        N  0.52794348  0.79428709  0.15020046    -0.33100
C550        C  0.54673955  0.76228830  0.14799831    -0.10700
C551        C  0.58421365  0.76949288  0.14515733    -0.29500
N552        N  0.63408881  0.89201699  0.12518148    -0.46100
C553        C  0.61498801  0.92384375  0.12474579    -0.05300
C554        C  0.57867691  0.91816741  0.13276802    -0.22700
H555        H  0.51847966  0.87042309  0.14707139     0.19100
H556        H  0.64420576  0.81697304  0.13258695     0.17900
H557        H  0.60512727  0.75009573  0.13923946     0.14200
H558        H  0.55704561  0.93836580  0.13422470     0.14000
H559        H  0.49945081  0.79739820  0.14916686     0.32200
H560        H  0.66175519  0.88834205  0.12045146     0.35000
C561        C  0.56455147  0.06261420  0.29317658     0.20600
C562        C  0.58793087  0.04235504  0.27656848    -0.39300
C563        C  0.58261448  0.04706275  0.24907730     0.19500
C564        C  0.55612654  0.07045478  0.23894800     0.22200
C565        C  0.53246413  0.09042607  0.25556413    -0.39800
C566        C  0.53765395  0.08557250  0.28307635     0.21000
N567        N  0.56783803  0.06698222  0.31963121    -0.33100
C568        C  0.54322891  0.09315473  0.32653089    -0.10700
C569        C  0.52329517  0.10490163  0.30430505    -0.29500
N570        N  0.56002790  0.07419191  0.21247112    -0.46100
C571        C  0.58914548  0.05307582  0.20559693    -0.05300
C572        C  0.60364267  0.03527358  0.22788463    -0.22700
H573        H  0.61014944  0.02589537  0.28448900     0.19100
H574        H  0.51304490  0.11009943  0.24766493     0.17900
H575        H  0.50402064  0.12741178  0.30332594     0.14200
H576        H  0.62838626  0.01891424  0.22884948     0.14000
H577        H  0.58786590  0.05517457  0.33187187     0.32200
H578        H  0.54537730  0.09203446  0.20010999     0.35000
C579        C  0.08793394  0.22971705  0.38302087     0.20600
C580        C  0.11989945  0.21076032  0.39056840    -0.39300
C581        C  0.11614312  0.17282042  0.39390491     0.19500
C582        C  0.08315405  0.15493319  0.38961329     0.22200
C583        C  0.05096512  0.17397486  0.38260565    -0.39800
C584        C  0.05460551  0.21210356  0.37965662     0.21000
N585        N  0.08325622  0.26616906  0.38314238    -0.33100
C586        C  0.04662714  0.27229515  0.38096996    -0.10700
C587        C  0.02796366  0.23900913  0.37821901    -0.29500
N588        N  0.08666204  0.11887653  0.39456124    -0.46100
C589        C  0.12198409  0.11387641  0.40249158    -0.05300
C590        C  0.14119046  0.14696328  0.40244241    -0.22700
H591        H  0.14544962  0.22481613  0.39478980     0.19100
H592        H  0.02466025  0.16033957  0.38089030     0.17900
H593        H  0.99860438  0.23477335  0.37964142     0.14200
H594        H  0.16972646  0.15139644  0.40765580     0.14000
H595        H  0.10303129  0.28539938  0.38887989     0.32200
H596        H  0.06617103  0.09895282  0.39300731     0.35000
C597        C  0.15058920  0.44266932  0.38867075     0.20600
C598        C  0.16999538  0.47490398  0.38241802    -0.39300
C599        C  0.20820998  0.47116275  0.37914145     0.19500
C600        C  0.22566317  0.43771562  0.38154158     0.22200
C601        C  0.20627960  0.40556549  0.38805932    -0.39800
C602        C  0.16821287  0.40940442  0.39173896     0.21000
N603        N  0.11460767  0.43945578  0.39448685    -0.33100
C604        C  0.10929144  0.40403506  0.40182004    -0.10700
C605        C  0.14218172  0.38444066  0.40031450    -0.29500
N606        N  0.26235507  0.44226917  0.38201043    -0.46100
C607        C  0.26880236  0.47886936  0.38073530    -0.05300
C608        C  0.23542748  0.49763641  0.37845740    -0.22700
H609        H  0.15662345  0.50134356  0.38172036     0.19100
H610        H  0.22018758  0.37982473  0.39159013     0.17900
H611        H  0.14648892  0.35583239  0.40500770     0.14200
H612        H  0.23135657  0.52683695  0.38063378     0.14000
H613        H  0.09500903  0.46032179  0.39415612     0.32200
H614        H  0.28154339  0.42221302  0.38722627     0.35000
C615        C  0.72188140  0.27065858  0.40001346     0.20600
C616        C  0.74217125  0.30314860  0.39838994    -0.39300
C617        C  0.78040652  0.29916603  0.40015729     0.19500
C618        C  0.79737166  0.26559026  0.40381258     0.22200
C619        C  0.77708071  0.23302229  0.40523175    -0.39800
C620        C  0.73884947  0.23693339  0.40291524     0.21000
N621        N  0.68518393  0.26686957  0.39804997    -0.33100
C622        C  0.67903789  0.23035846  0.39912858    -0.10700
C623        C  0.71172559  0.21089257  0.40221612    -0.29500
N624        N  0.83418611  0.26936720  0.40460643    -0.46100
C625        C  0.84046679  0.30558410  0.40091565    -0.05300
C626        C  0.80763284  0.32490966  0.39815431    -0.22700
H627        H  0.72922016  0.32952060  0.39547196     0.19100
H628        H  0.79008801  0.20654897  0.40743848     0.17900
H629        H  0.71510207  0.18151269  0.40371094     0.14200
H630        H  0.80419355  0.35403373  0.39500420     0.14000
H631        H  0.66573934  0.28759534  0.39546291     0.32200
H632        H  0.85371076  0.24865068  0.40688364     0.35000
C633        C  0.93923700  0.65651168  0.14096734     0.20600
C634        C  0.97129986  0.67610988  0.14757730    -0.39300
C635        C  0.96728164  0.71429759  0.15001990     0.19500
C636        C  0.93373384  0.73143144  0.14656041     0.22200
C637        C  0.90191390  0.71191244  0.13952434    -0.39800
C638        C  0.90604050  0.67398331  0.13667963     0.21000
N639        N  0.93616358  0.62043697  0.13582463    -0.33100
C640        C  0.90094178  0.61517494  0.12769139    -0.10700
C641        C  0.88135424  0.64795016  0.12799203    -0.29500
N642        N  0.93800467  0.76792420  0.14568987    -0.46100
C643        C  0.97456745  0.77457991  0.14757032    -0.05300
C644        C  0.99363185  0.74160203  0.15079761    -0.22700
H645        H  0.99780088  0.66286681  0.14917371     0.19100
H646        H  0.87622761  0.72556912  0.13509833     0.17900
H647        H  0.85292457  0.65217498  0.12240582     0.14200
H648        H  0.02302101  0.73770492  0.14929658     0.14000
H649        H  0.95696398  0.60081362  0.13700165     0.32200
H650        H  0.91794712  0.78672147  0.13974060     0.35000
C651        C  0.70765667  0.56203922  0.14675441     0.20600
C652        C  0.66976233  0.55585638  0.14340212    -0.39300
C653        C  0.64842252  0.58681147  0.13722455     0.19500
C654        C  0.66377646  0.62118791  0.13405113     0.22200
C655        C  0.70151703  0.62745857  0.13774070    -0.39800
C656        C  0.72273307  0.59665011  0.14446239     0.21000
N657        N  0.73434511  0.53656177  0.14799827    -0.33100
C658        C  0.76676819  0.55484106  0.14646113    -0.10700
C659        C  0.76034823  0.59250370  0.14484928    -0.29500
N660        N  0.63815026  0.64560008  0.12636244    -0.46100
C661        C  0.60604145  0.62682245  0.12505376    -0.05300
C662        C  0.61133097  0.59007663  0.13182614    -0.22700
H663        H  0.65799164  0.52866896  0.14435479     0.19100
H664        H  0.71375451  0.65407998  0.13440585     0.17900
H665        H  0.78026134  0.61337146  0.13972440     0.14200
H666        H  0.59087234  0.56857649  0.13234144     0.14000
H667        H  0.73064863  0.50831757  0.14606580     0.32200
H668        H  0.64215359  0.67343639  0.12254583     0.35000
C669        C  0.73172717  0.24607010  0.12730466     0.20600
C670        C  0.72573054  0.28398121  0.12809487    -0.39300
C671        C  0.75703614  0.30584364  0.12517630     0.19500
C672        C  0.79168259  0.29090565  0.12204676     0.22200
C673        C  0.79759674  0.25293493  0.12072547    -0.39800
C674        C  0.76616767  0.23104347  0.12337279     0.21000
N675        N  0.70658097  0.21969065  0.13043761    -0.33100
C676        C  0.72485710  0.18752842  0.12823404    -0.10700
C677        C  0.76215952  0.19337918  0.12358290    -0.29500
N678        N  0.81717159  0.31739246  0.12158497    -0.46100
C679        C  0.79864132  0.34938300  0.12415920    -0.05300
C680        C  0.76097385  0.34341535  0.12614408    -0.22700
H681        H  0.69874053  0.29556471  0.13122704     0.19100
H682        H  0.82472303  0.24132970  0.11831535     0.17900
H683        H  0.78340822  0.17297245  0.12111612     0.14200
H684        H  0.73966387  0.36362168  0.12912967     0.14000
H685        H  0.67849806  0.22337768  0.13367552     0.32200
H686        H  0.84556300  0.31393122  0.12001084     0.35000
C687        C  0.96353629  0.46322923  0.23803940     0.20600
C688        C  0.98581829  0.44120214  0.25440471    -0.39300
C689        C  0.98121684  0.44571961  0.28193095     0.19500
C690        C  0.95614527  0.47029589  0.29228434     0.22200
C691        C  0.93403698  0.49252747  0.27591046    -0.39800
C692        C  0.93872065  0.48808938  0.24836404     0.21000
N693        N  0.95926844  0.46036231  0.21156549    -0.33100
C694        C  0.93139796  0.48325075  0.20484401    -0.10700
C695        C  0.91823197  0.50157281  0.22724914    -0.29500
N696        N  0.95330642  0.46593638  0.31875335    -0.46100
C697        C  0.97649374  0.43829477  0.32539697    -0.05300
C698        C  0.99486948  0.42532117  0.30297037    -0.22700
H699        H  0.00381917  0.42049395  0.24627844     0.19100
H700        H  0.91315710  0.51035253  0.28402409     0.17900
H701        H  0.89450151  0.51932975  0.22834036     0.14200
H702        H  0.01290213  0.40183496  0.30182281     0.14000
H703        H  0.97263235  0.44179651  0.19910698     0.32200
H704        H  0.93467517  0.47914839  0.33125475     0.35000
C705        C  0.93778710  0.31417397  0.00820143     0.20600
C706        C  0.91480161  0.34426542  0.01243769    -0.39300
C707        C  0.92064281  0.36341856  0.03617357     0.19500
C708        C  0.94725722  0.35337659  0.05452907     0.22200
C709        C  0.97081825  0.32342065  0.05004712    -0.39800
C710        C  0.96510962  0.30427146  0.02603823     0.21000
N711        N  0.93676864  0.29118752  0.98744144    -0.33100
C712        C  0.96397124  0.26653787  0.99159735    -0.10700
C713        C  0.98249787  0.27383492  0.01549046    -0.29500
N714        N  0.94402329  0.37344242  0.07692038    -0.46100
C715        C  0.91491352  0.39601621  0.07271809    -0.05300
C716        C  0.90019226  0.39091907  0.04732635    -0.22700
H717        H  0.89306478  0.35150136  0.99863494     0.19100
H718        H  0.99130106  0.31502285  0.06448762     0.14700
H719        H  0.00560773  0.25911105  0.02385512     0.14200
H720        H  0.87550335  0.40310454  0.03913869     0.14000
H721        H  0.91915711  0.29279941  0.97099507     0.32200
H722        H  0.95862361  0.36982273  0.09468363     0.35000
C723        C  0.85293009  0.11460713  0.99317084     0.20600
C724        C  0.83180769  0.12410902  0.01532619    -0.39300
C725        C  0.80371654  0.09967287  0.02195609     0.19500
C726        C  0.79727174  0.06767261  0.00797466     0.22200
C727        C  0.81837330  0.05819271  0.98553025    -0.39800
C728        C  0.84634638  0.08311801  0.97857719     0.21000
N729        N  0.87864879  0.13536130  0.98151985    -0.33100
C730        C  0.88819216  0.11771235  0.95887265    -0.10700
C731        C  0.86902329  0.08461180  0.95651597    -0.29500
N732        N  0.76898524  0.04903167  0.01882196    -0.46100
C733        C  0.75732409  0.06974986  0.03962059    -0.05300
C734        C  0.77831934  0.10151955  0.04200618    -0.22700
H735        H  0.83629763  0.14929808  0.02621288     0.19100
H736        H  0.81281332  0.03381355  0.97395322     0.17900
H737        H  0.86918697  0.06591279  0.93980420     0.14200
H738        H  0.77606105  0.12265056  0.05702201     0.14000
H739        H  0.88686969  0.16152462  0.98748912     0.32200
H740        H  0.75865611  0.02368533  0.01273481     0.35000
C741        C  0.95575799  0.06387235  0.79358719     0.20600
C742        C  0.93405934  0.04170263  0.77695264    -0.39300
C743        C  0.94101064  0.04457655  0.74957294     0.19500
C744        C  0.96747625  0.06801338  0.73955082     0.22200
C745        C  0.98946282  0.08992366  0.75623791    -0.39800
C746        C  0.98262083  0.08691499  0.78365587     0.21000
N747        N  0.95111590  0.06952280  0.81976662    -0.33100
C748        C  0.97499060  0.09644167  0.82668124    -0.10700
C749        C  0.99556572  0.10767568  0.80473339    -0.29500
N750        N  0.96476695  0.07015126  0.71289044    -0.46100
C751        C  0.93626827  0.04818739  0.70583910    -0.05300
C752        C  0.92123834  0.03115192  0.72816989    -0.22700
H753        H  0.91182568  0.02514853  0.78465384     0.19100
H754        H  0.00883250  0.10958770  0.74833710     0.17900
H755        H  0.01481329  0.13023481  0.80380349     0.14200
H756        H  0.89653316  0.01468590  0.72894407     0.14000
H757        H  0.93110361  0.05752675  0.83181911     0.32200
H758        H  0.97931171  0.08795210  0.70050148     0.35000
C759        C  0.94383122  0.18493541  0.55590881     0.20600
C760        C  0.96905155  0.21309857  0.55004704    -0.39300
C761        C  0.96144694  0.23389251  0.52700599     0.19500
C762        C  0.93083578  0.22728447  0.51131149     0.22200
C763        C  0.90598236  0.19900811  0.51695535    -0.39800
C764        C  0.91376965  0.17810831  0.53971191     0.21000
N765        N  0.94292926  0.16333282  0.57773641    -0.33100
C766        C  0.91193266  0.14281099  0.57538507    -0.10700
C767        C  0.89348354  0.15097706  0.55167143    -0.29500
N768        N  0.92957693  0.25052757  0.49059007    -0.46100
C769        C  0.95993852  0.27190904  0.49257577    -0.05300
C770        C  0.98051046  0.26243293  0.51517518    -0.22700
H771        H  0.99255931  0.21871350  0.56265943     0.19100
H772        H  0.88194515  0.19400726  0.50472387     0.17900
H773        H  0.86701224  0.14071926  0.54518192     0.14200
H774        H  0.00643580  0.27402338  0.52158589     0.14000
H775        H  0.96080461  0.16435727  0.59404459     0.32200
H776        H  0.90997590  0.25075168  0.47532977     0.35000
C777        C  0.72805218  0.07261750  0.50809469     0.20600
C778        C  0.70819653  0.06311103  0.48497929    -0.39300
C779        C  0.68248908  0.08914788  0.47599909     0.19500
C780        C  0.67705946  0.12194604  0.48917887     0.22200
C781        C  0.69711981  0.13160116  0.51201348    -0.39800
C782        C  0.72277576  0.10573167  0.52088652     0.21000
N783        N  0.75336815  0.05241181  0.52109493    -0.33100
C784        C  0.76431873  0.07297708  0.54220950    -0.10700
C785        C  0.74590527  0.10646213  0.54261819    -0.29500
N786        N  0.65172602  0.14230815  0.47659961    -0.46100
C787        C  0.64091115  0.12271755  0.45501114    -0.05300
C788        C  0.65954066  0.08928031  0.45392423    -0.22700
H789        H  0.71244220  0.03739215  0.47476249     0.19100
H790        H  0.69301584  0.15741141  0.52215255     0.17900
H791        H  0.74833557  0.12801372  0.55731600     0.14200
H792        H  0.65760824  0.06857831  0.43857302     0.14000
H793        H  0.76217348  0.02607173  0.51617703     0.32200
H794        H  0.64339287  0.16869982  0.48183351     0.35000
C795        C  0.67990138  0.45333899  0.97249114     0.20600
C796        C  0.70879799  0.47802325  0.97785073    -0.39300
C797        C  0.72879994  0.47147650  0.00148327     0.19500
C798        C  0.72072364  0.44233658  0.01810458     0.22200
C799        C  0.69169863  0.41822467  0.01301606    -0.39800
C800        C  0.67163172  0.42496857  0.98974457     0.21000
N801        N  0.65884579  0.45121615  0.95035582    -0.33100
C802        C  0.63722279  0.42122726  0.95375713    -0.10700
C803        C  0.64416918  0.40464639  0.97827508    -0.29500
N804        N  0.74390430  0.44118791  0.03886699    -0.46100
C805        C  0.76684612  0.47010221  0.03597464    -0.05300
C806        C  0.75827071  0.48984939  0.01285689    -0.22700
H807        H  0.71565466  0.50015141  0.96440502     0.19100
H808        H  0.68568444  0.39529991  0.02597201     0.17900
H809        H  0.63288956  0.37918687  0.98570698     0.14200
H810        H  0.77137892  0.51450958  0.00562450     0.14000
H811        H  0.66082926  0.46755910  0.93333564     0.32200
H812        H  0.74334885  0.42242963  0.05459032     0.35000
C813        C  0.56082753  0.23990876  0.02548677     0.20600
C814        C  0.55076125  0.21836999  0.04766444    -0.39300
C815        C  0.57677962  0.19205078  0.05597832     0.19500
C816        C  0.60982930  0.18753930  0.04287924     0.22200
C817        C  0.62003294  0.20927679  0.02117528    -0.39800
C818        C  0.59443324  0.23557945  0.01313565     0.21000
N819        N  0.54078199  0.26576687  0.01282610    -0.33100
C820        C  0.56210160  0.27785081  0.99243209    -0.10700
C821        C  0.59581086  0.25980622  0.99227183    -0.29500
N822        N  0.63028855  0.16167857  0.05465526    -0.46100
C823        C  0.61086004  0.14970888  0.07591186    -0.05300
C824        C  0.57707118  0.16794524  0.07740031    -0.22700
H825        H  0.52474832  0.22187122  0.05769440     0.19100
H826        H  0.64613292  0.20591835  0.01122465     0.17900
H827        H  0.61775679  0.26273093  0.97793369     0.14200
H828        H  0.55646213  0.16530374  0.09275531     0.14000
H829        H  0.51396677  0.27380964  0.01723399     0.32200
H830        H  0.65697133  0.15416290  0.04938264     0.35000
C831        C  0.73814034  0.29898312  0.90062176     0.20600
C832        C  0.77620144  0.30452641  0.89870290    -0.39300
C833        C  0.79800710  0.27331823  0.90232809     0.19500
C834        C  0.78286465  0.23918077  0.90714202     0.22200
C835        C  0.74481534  0.23377006  0.90958050    -0.39800
C836        C  0.72301310  0.26508299  0.90623751     0.21000
N837        N  0.71167763  0.32404337  0.89720558    -0.33100
C838        C  0.67939131  0.30623064  0.90090300    -0.10700
C839        C  0.68528557  0.26936079  0.90681427    -0.29500
N840        N  0.80921703  0.21359606  0.90825350    -0.46100
C841        C  0.84138702  0.23155959  0.90447963    -0.05300
C842        C  0.83563664  0.26896751  0.90094486    -0.22700
H843        H  0.78791707  0.33109396  0.89432668     0.19100
H844        H  0.73305489  0.20705509  0.91337789     0.17900
H845        H  0.66482234  0.24851077  0.91060094     0.14200
H846        H  0.85601272  0.28981431  0.89690672     0.14000
H847        H  0.71539588  0.35176058  0.89280339     0.32200
H848        H  0.80555935  0.18551060  0.91120895     0.35000
C849        C  0.76714578  0.30625524  0.63311739     0.20600
C850        C  0.80003636  0.28644239  0.63541911    -0.39300
C851        C  0.79654065  0.24812330  0.63464042     0.19500
C852        C  0.76302561  0.23074326  0.63128000     0.22200
C853        C  0.73014268  0.25051351  0.62920703    -0.39800
C854        C  0.73355863  0.28876047  0.63053203     0.21000
N855        N  0.76278625  0.34292117  0.63386348    -0.33100
C856        C  0.72604457  0.34855686  0.63228845    -0.10700
C857        C  0.70705660  0.31547371  0.63018457    -0.29500
N858        N  0.76719229  0.19409767  0.63089658    -0.46100
C859        C  0.80361368  0.18814696  0.63445635    -0.05300
C860        C  0.82271855  0.22117104  0.63689447    -0.22700
H861        H  0.82635412  0.29982046  0.63794402     0.19100
H862        H  0.70376945  0.23711374  0.62707562     0.17900
H863        H  0.67765192  0.31156397  0.62860273     0.14200
H864        H  0.85199303  0.22492646  0.63958596     0.14000
H865        H  0.78330938  0.36271947  0.63595077     0.32200
H866        H  0.74659568  0.17442593  0.62854643     0.35000
C867        C  0.53950843  0.44768789  0.78109023     0.20600
C868        C  0.53327762  0.44094000  0.75390492    -0.39300
C869        C  0.55445599  0.46173390  0.73609186     0.19500
C870        C  0.57988538  0.48742564  0.74462619     0.22200
C871        C  0.58623418  0.49404643  0.77176996    -0.39800
C872        C  0.56512839  0.47322705  0.78956518     0.21000
N873        N  0.52650988  0.42828044  0.80187684    -0.33100
C874        C  0.54452137  0.44113152  0.82364599    -0.10700
C875        C  0.56837816  0.46951633  0.81672557    -0.29500
N876        N  0.59944967  0.50044436  0.72398509    -0.46100
C877        C  0.58681464  0.48247064  0.70220349    -0.05300
C878        C  0.55848732  0.45841700  0.70895220    -0.22700
H879        H  0.51484172  0.41959485  0.74713806     0.19100
H880        H  0.60752701  0.51255531  0.77856112     0.17900
H881        H  0.58805104  0.48321955  0.82951442     0.14200
H882        H  0.54489876  0.43881867  0.69608548     0.14000
H883        H  0.50914358  0.40553479  0.80097450     0.32200
H884        H  0.62206172  0.51801981  0.72499028     0.35000
C885        C  0.80028721  0.43517261  0.51959268     0.20600
C886        C  0.82822615  0.41021898  0.51382676    -0.39300
C887        C  0.84852066  0.41764930  0.49088177     0.19500
C888        C  0.84124515  0.44721994  0.47444079     0.22200
C889        C  0.81320914  0.47243047  0.48030349    -0.39800
C890        C  0.79323640  0.46538414  0.50370362     0.21000
N891        N  0.77825150  0.43474417  0.54089026    -0.33100
C892        C  0.75728028  0.46524383  0.53900298    -0.10700
C893        C  0.76564068  0.48504308  0.51596400    -0.29500
N894        N  0.86299420  0.44635075  0.45277578    -0.46100
C895        C  0.88414489  0.41598225  0.45568514    -0.05300
C896        C  0.87610180  0.39780871  0.47938238    -0.22700
H897        H  0.83380314  0.38670144  0.52634190     0.19100
H898        H  0.80743356  0.49576248  0.46766502     0.17900
H899        H  0.75400235  0.51085564  0.50955268     0.14200
H900        H  0.88697808  0.37187034  0.48626281     0.14000
H901        H  0.77858258  0.41561429  0.55638145     0.32200
H902        H  0.86195280  0.46395371  0.43637996     0.35000
C903        C  0.58229975  0.34849515  0.55443100     0.20600
C904        C  0.55695847  0.32039696  0.54881622    -0.39300
C905        C  0.56296751  0.30093843  0.52506729     0.19500
C906        C  0.59214936  0.30881801  0.50843395     0.22200
C907        C  0.61716382  0.33701284  0.51388019    -0.39800
C908        C  0.61104701  0.35650597  0.53743396     0.21000
N909        N  0.58450980  0.36905302  0.57663420    -0.33100
C910        C  0.61501354  0.39005727  0.57372246    -0.10700
C911        C  0.63194870  0.38325588  0.54935352    -0.29500
N912        N  0.59223414  0.28642092  0.48729757    -0.46100
C913        C  0.56262721  0.26425888  0.49010425    -0.05300
C914        C  0.54362160  0.27242464  0.51349926    -0.22700
H915        H  0.53461026  0.31380184  0.56213829     0.19100
H916        H  0.64016058  0.34288107  0.50095667     0.17900
H917        H  0.65767743  0.39437171  0.54222302     0.14200
H918        H  0.51870218  0.25976660  0.52074783     0.14000
H919        H  0.56769792  0.36723029  0.59339434     0.32200
H920        H  0.61075835  0.28695667  0.47145930     0.35000
C921        C  0.14698475  0.09123530  0.88613665     0.20600
C922        C  0.16561106  0.05868509  0.87984435    -0.39300
C923        C  0.20373418  0.06185340  0.87608777     0.19500
C924        C  0.22174342  0.09513911  0.87785212     0.22200
C925        C  0.20308759  0.12764105  0.88426572    -0.39800
C926        C  0.16519615  0.12430781  0.88865008     0.21000
N927        N  0.11149068  0.09483204  0.89301963    -0.33100
C928        C  0.10722732  0.13025695  0.90052500    -0.10700
C929        C  0.14012501  0.14954768  0.89798474    -0.29500
N930        N  0.25829052  0.09005783  0.87847943    -0.46100
C931        C  0.26401219  0.05334754  0.87814224    -0.05300
C932        C  0.23043648  0.03495194  0.87608351    -0.22700
H933        H  0.15186373  0.03239919  0.87982817     0.19100
H934        H  0.21751208  0.15317731  0.88754591     0.17900
H935        H  0.14509523  0.17806302  0.90262447     0.14200
H936        H  0.22586668  0.00593926  0.87901413     0.14000
H937        H  0.09162736  0.07418504  0.89339891     0.32200
H938        H  0.27778381  0.10997213  0.88342600     0.35000
C939        C  0.43186647  0.15922096  0.88500950     0.20600
C940        C  0.46347638  0.17894093  0.87763618    -0.39300
C941        C  0.45996337  0.21731319  0.87701989     0.19500
C942        C  0.42723886  0.23460511  0.88295659     0.22200
C943        C  0.39577654  0.21491935  0.89061781    -0.39800
C944        C  0.39944719  0.17667715  0.89157411     0.21000
N945        N  0.42896380  0.12285995  0.88908815    -0.33100
C946        C  0.39468305  0.11717699  0.89880971    -0.10700
C947        C  0.37541395  0.15014140  0.90051695    -0.29500
N948        N  0.43238126  0.27093260  0.88503888    -0.46100
C949        C  0.46872946  0.27724208  0.88115033    -0.05300
C950        C  0.48670325  0.24425854  0.87575305    -0.22700
H951        H  0.48949531  0.16549896  0.87416637     0.19100
H952        H  0.37087570  0.22853808  0.89688901     0.17900
H953        H  0.34779559  0.15421408  0.90783880     0.14200
H954        H  0.51608501  0.23986883  0.87520724     0.14000
H955        H  0.44948182  0.10327044  0.88633962     0.32200
H956        H  0.41338485  0.28965196  0.89258026     0.35000
C957        C  0.17886567  0.95165045  0.05412451     0.20600
C958        C  0.20736100  0.97670101  0.04870184    -0.39300
C959        C  0.22836720  0.96932670  0.02579843     0.19500
C960        C  0.22173948  0.93897954  0.00999880     0.22200
C961        C  0.19322940  0.91435729  0.01521766    -0.39800
C962        C  0.17202086  0.92203827  0.03766824     0.21000
N963        N  0.15658962  0.95067735  0.07553983    -0.33100
C964        C  0.13559802  0.92016551  0.07250099    -0.10700
C965        C  0.14421025  0.90207107  0.04889246    -0.29500
N966        N  0.24495151  0.93789194  0.98938488    -0.46100
C967        C  0.26628358  0.96814575  0.99145627    -0.05300
C968        C  0.25689848  0.98850617  0.01404339    -0.22700
H969        H  0.21288241  0.00000580  0.06140289     0.19100
H970        H  0.18811475  0.89068229  0.00278148     0.17900
H971        H  0.13373292  0.87596900  0.04200973     0.14200
H972        H  0.26845806  0.01436453  0.02044061     0.14000
H973        H  0.15737499  0.96816434  0.09198322     0.32200
H974        H  0.24504454  0.91856130  0.97405302     0.35000
C975        C  0.45878600  0.80133113  0.00553483     0.20600
C976        C  0.46670672  0.81839770  0.98104169    -0.39300
C977        C  0.44451536  0.84864474  0.97432207     0.19500
C978        C  0.41692346  0.86100307  0.99092306     0.22200
C979        C  0.40895470  0.84391582  0.01522681    -0.39800
C980        C  0.43069808  0.81357054  0.02172029     0.21000
N981        N  0.47556088  0.77205782  0.01657213    -0.33100
C982        C  0.45758449  0.76552653  0.03975846    -0.10700
C983        C  0.42940214  0.79082154  0.04350787    -0.29500
N984        N  0.39780271  0.88809133  0.97930124    -0.46100
C985        C  0.41269709  0.89292676  0.95484231    -0.05300
C986        C  0.44230279  0.86906856  0.95111850    -0.22700
H987        H  0.48793957  0.80835779  0.96791806     0.19100
H988        H  0.38672966  0.85300856  0.02785084     0.17900
H989        H  0.41112731  0.79298288  0.06039250     0.14200
H990        H  0.45799164  0.86505105  0.93309236     0.14000
H991        H  0.49802886  0.75773819  0.00899942     0.32200
H992        H  0.37423235  0.90061579  0.98681856     0.35000
C993        C  0.64995769  0.94448869  0.64302796     0.20600
C994        C  0.66894013  0.97656673  0.65039611    -0.39300
C995        C  0.70715778  0.97299503  0.65406410     0.19500
C996        C  0.72490357  0.93980742  0.65110077     0.22200
C997        C  0.70597502  0.90792073  0.64336969    -0.39800
C998        C  0.66800136  0.91162742  0.63922828     0.21000
N999        N  0.61408749  0.94114861  0.63670951    -0.33100
C1000       C  0.60937499  0.90608469  0.62832369    -0.10700
C1001       C  0.64246822  0.88686095  0.62962331    -0.29500
N1002       N  0.76151881  0.94461914  0.65108271    -0.46100
C1003       C  0.76771347  0.98119416  0.65286190    -0.05300
C1004       C  0.73419114  0.99963399  0.65540729    -0.22700
H1005       H  0.65530418  0.00283386  0.65156566     0.19100
H1006       H  0.72019097  0.88253408  0.63929562     0.17900
H1007       H  0.64720232  0.85857952  0.62422452     0.14200
H1008       H  0.72986912  0.02884555  0.65352067     0.14000
H1009       H  0.59418247  0.96169954  0.63744242     0.32200
H1010       H  0.78078731  0.92492973  0.64544009     0.35000
C1011       C  0.58445417  0.72808910  0.64795794     0.20600
C1012       C  0.61753452  0.70915559  0.64356465    -0.39300
C1013       C  0.61424081  0.67184586  0.63715533     0.19500
C1014       C  0.58053220  0.65448334  0.63566483     0.22200
C1015       C  0.54740997  0.67349308  0.63966542    -0.39800
C1016       C  0.55070352  0.71096694  0.64575013     0.21000
N1017       N  0.58018978  0.76462297  0.64949503    -0.33100
C1018       C  0.54363307  0.77137283  0.64734899    -0.10700
C1019       C  0.52440873  0.73824481  0.64555657    -0.29500
N1020       N  0.58472340  0.61914631  0.62863160    -0.46100
C1021       C  0.62132623  0.61404503  0.62514989    -0.05300
C1022       C  0.64062565  0.64639462  0.63020177    -0.22700
H1023       H  0.64385195  0.72295271  0.64374657     0.19100
H1024       H  0.52095087  0.66047996  0.63689922     0.17900
H1025       H  0.49581183  0.73487476  0.64007389     0.14200
H1026       H  0.67002073  0.65058144  0.62921621     0.14000
H1027       H  0.60117019  0.78397431  0.64756545     0.32200
H1028       H  0.56391677  0.59976286  0.62599951     0.35000
C1029       C  0.45299898  0.96884218  0.73600838     0.20600
C1030       C  0.43057922  0.99059963  0.75228955    -0.39300
C1031       C  0.43562886  0.98630566  0.77982808     0.19500
C1032       C  0.46093296  0.96190474  0.79028915     0.22200
C1033       C  0.48352621  0.94029373  0.77399970    -0.39800
C1034       C  0.47866648  0.94479477  0.74644171     0.21000
N1035       N  0.45038146  0.96482798  0.70949573    -0.33100
C1036       C  0.47437607  0.93796582  0.70288201    -0.10700
C1037       C  0.49296758  0.92511146  0.72538496    -0.29500
N1038       N  0.45731215  0.95954818  0.81684515    -0.46100
C1039       C  0.42949392  0.98249579  0.82341969    -0.05300
C1040       C  0.41557520  0.00008501  0.80086506    -0.22700
H1041       H  0.40945144  0.00820614  0.74411205     0.19100
H1042       H  0.50216852  0.92010168  0.78218848     0.17900
H1043       H  0.51176894  0.90221882  0.72650973     0.14200
H1044       H  0.39187184  0.01788915  0.79972375     0.14000
H1045       H  0.43156425  0.97784796  0.69690324     0.32200
H1046       H  0.47129949  0.94158142  0.82951368     0.35000
C1047       C  0.29662437  0.93162893  0.50959383     0.20600
C1048       C  0.32423444  0.90614066  0.51516726    -0.39300
C1049       C  0.34731847  0.91482739  0.53655550     0.19500
C1050       C  0.34291956  0.94610217  0.55174777     0.22200
C1051       C  0.31525944  0.97183419  0.54606160    -0.39800
C1052       C  0.29250023  0.96349631  0.52419089     0.21000
N1053       N  0.27276293  0.93054394  0.48923891    -0.33100
C1054       C  0.25373862  0.96233721  0.49031712    -0.10700
C1055       C  0.26494125  0.98352117  0.51205901    -0.29500
N1056       N  0.36671359  0.94622453  0.57236472    -0.46100
C1057       C  0.38620379  0.91472265  0.57012684    -0.05300
C1058       C  0.37521067  0.89487011  0.54776138    -0.22700
H1059       H  0.32759443  0.88137486  0.50360145     0.19100
H1060       H  0.31184082  0.99653416  0.55767851     0.17900
H1061       H  0.25562917  0.01067018  0.51737435     0.14200
H1062       H  0.38412178  0.86778833  0.54187729     0.14000
H1063       H  0.27112285  0.91037473  0.47453138     0.32200
H1064       H  0.36782785  0.96516122  0.58792616     0.35000
C1065       C  0.43001747  0.73060973  0.51714220     0.20600
C1066       C  0.40255668  0.70512470  0.51096896    -0.39300
C1067       C  0.41007531  0.68174839  0.48963645     0.19500
C1068       C  0.44234163  0.68369794  0.47523253     0.22200
C1069       C  0.47017095  0.70907284  0.48166967    -0.39800
C1070       C  0.46275173  0.73243156  0.50329731     0.21000
N1071       N  0.42941176  0.75527712  0.53685001    -0.33100
C1072       C  0.46217806  0.77287988  0.53607092    -0.10700
C1073       C  0.48378856  0.75952642  0.51524914    -0.29500
N1074       N  0.44111551  0.66050603  0.45435652    -0.46100
C1075       C  0.40779025  0.64385021  0.45562913    -0.05300
C1076       C  0.38802032  0.65608976  0.47761676    -0.22700
H1077       H  0.37693162  0.70391411  0.52179873     0.19100
H1078       H  0.49544420  0.71083291  0.47047168     0.17900
H1079       H  0.51151693  0.76754435  0.51019522     0.14200
H1080       H  0.36001587  0.64928941  0.48286824     0.14000
H1081       H  0.40838822  0.75888830  0.55070918     0.32200
H1082       H  0.46071796  0.65781064  0.43935575     0.35000
C1083       C  0.07908916  0.38124927  0.89171650     0.20600
C1084       C  0.04698222  0.36181980  0.88494666    -0.39300
C1085       C  0.05128449  0.32395116  0.88073797     0.19500
C1086       C  0.08511583  0.30696723  0.88268975     0.22200
C1087       C  0.11700757  0.32628104  0.88994654    -0.39800
C1088       C  0.11260661  0.36387698  0.89458013     0.21000
N1089       N  0.08217622  0.41710820  0.89764556    -0.33100
C1090       C  0.11780238  0.42238856  0.90478337    -0.10700
C1091       C  0.13754893  0.38974046  0.90323226    -0.29500
N1092       N  0.08121321  0.27040223  0.88208106    -0.46100
C1093       C  0.04463001  0.26345147  0.88091439    -0.05300
C1094       C  0.02518601  0.29645223  0.87940959    -0.22700
H1095       H  0.02031659  0.37487650  0.88436889     0.19100
H1096       H  0.14304531  0.31263112  0.89309281     0.17900
H1097       H  0.16644175  0.38564830  0.90742841     0.14200
H1098       H  0.99587967  0.29993858  0.88192410     0.14000
H1099       H  0.06130563  0.43670337  0.89712980     0.32200
H1100       H  0.10168020  0.25144645  0.88691277     0.35000
C1101       C  0.30967276  0.47080851  0.87759122     0.20600
C1102       C  0.34762424  0.47773104  0.87944095    -0.39300
C1103       C  0.36958893  0.44805166  0.88747713     0.19500
C1104       C  0.35474703  0.41424835  0.89369089     0.22200
C1105       C  0.31696267  0.40717957  0.89152596    -0.39800
C1106       C  0.29510328  0.43664295  0.88301724     0.21000
N1107       N  0.28269858  0.49584557  0.87542242    -0.33100
C1108       C  0.25065411  0.47778727  0.87970398    -0.10700
C1109       C  0.25750824  0.44054688  0.88374628    -0.29500
N1110       N  0.38089441  0.39136285  0.90271472    -0.46100
C1111       C  0.41282013  0.41045513  0.90189094    -0.05300
C1112       C  0.40692018  0.44592853  0.89234796    -0.22700
H1113       H  0.35900307  0.50473561  0.87615463     0.19100
H1114       H  0.30520049  0.38116870  0.89736655     0.17900
H1115       H  0.23826348  0.42049408  0.89133669     0.14200
H1116       H  0.42710375  0.46739788  0.88976980     0.14000
H1117       H  0.28627739  0.52422829  0.87527344     0.32200
H1118       H  0.37730325  0.36426572  0.90886102     0.35000
C1119       C  0.23281665  0.74380901  0.90081802     0.20600
C1120       C  0.22646154  0.78151219  0.90374102    -0.39300
C1121       C  0.25766328  0.80389645  0.90243136     0.19500
C1122       C  0.29234777  0.78959509  0.89823573     0.22200
C1123       C  0.29878676  0.75184253  0.89580752    -0.39800
C1124       C  0.26764237  0.72942660  0.89740894     0.21000
N1125       N  0.20761425  0.71710453  0.90039141    -0.33100
C1126       C  0.22639118  0.68542407  0.89700383    -0.10700
C1127       C  0.26405684  0.69183135  0.89532500    -0.29500
N1128       N  0.31722228  0.81650599  0.89663028    -0.46100
C1129       C  0.29849411  0.84822032  0.90008532    -0.05300
C1130       C  0.26118041  0.84154763  0.90397841    -0.22700
H1131       H  0.19917564  0.79259260  0.90647555     0.19100
H1132       H  0.32599148  0.74081478  0.89259240     0.17900
H1133       H  0.28563351  0.67192158  0.89229515     0.14200
H1134       H  0.23958263  0.86145836  0.90693164     0.14000
H1135       H  0.17922988  0.72019999  0.90236963     0.32200
H1136       H  0.34538942  0.81345332  0.89342572     0.35000
C1137       C  0.06400965  0.73740298  0.00283902     0.20600
C1138       C  0.05399461  0.71512390  0.98107123    -0.39300
C1139       C  0.08099603  0.69034522  0.97229655     0.19500
C1140       C  0.11507727  0.68796857  0.98447869     0.22200
C1141       C  0.12521826  0.71047358  0.00584309    -0.39800
C1142       C  0.09846310  0.73519865  0.01445946     0.21000
N1143       N  0.04302838  0.76195476  0.01584473    -0.33100
C1144       C  0.06446304  0.77533402  0.03582032    -0.10700
C1145       C  0.09927804  0.75945080  0.03534399    -0.29500
N1146       N  0.13611523  0.66291171  0.97243200    -0.46100
C1147       C  0.11578063  0.64934432  0.95204147    -0.05300
C1148       C  0.08106890  0.66574929  0.95129648    -0.22700
H1149       H  0.02719775  0.71684572  0.97174944     0.19100
H1150       H  0.15198814  0.70868222  0.01521249     0.17900
H1151       H  0.12167955  0.76382210  0.04923356     0.14200
H1152       H  0.05948045  0.66140148  0.93675618     0.14000
H1153       H  0.01555673  0.76828013  0.01194600     0.32200
H1154       H  0.16343053  0.65673086  0.97703777     0.35000
C1155       C  0.29611070  0.56940016  0.02195128     0.20600
C1156       C  0.31453871  0.56064029  0.04584842    -0.39300
C1157       C  0.34108420  0.58613640  0.05442796     0.19500
C1158       C  0.34879552  0.61751653  0.04000744     0.22200
C1159       C  0.33039634  0.62627625  0.01631580    -0.39800
C1160       C  0.30371035  0.60118679  0.00799745     0.21000
N1161       N  0.26922812  0.55030872  0.00971060    -0.33100
C1162       C  0.25956813  0.57042689  0.98801949    -0.10700
C1163       C  0.28054507  0.60229147  0.98635650    -0.29500
N1164       N  0.37341759  0.63837439  0.05281539    -0.46100
C1165       C  0.38134459  0.62071793  0.07586824    -0.05300
C1166       C  0.36186003  0.58777112  0.07758333    -0.22700
H1167       H  0.30808891  0.53629063  0.05720885     0.19100
H1168       H  0.33589314  0.65129465  0.00545728     0.17900
H1169       H  0.27934084  0.62325015  0.97111119     0.14200
H1170       H  0.36136453  0.56874115  0.09411649     0.14000
H1171       H  0.25822771  0.52520584  0.01568099     0.32200
H1172       H  0.38272078  0.66417191  0.04685484     0.35000
C1173       C  0.90602593  0.86090426  0.63227295     0.20600
C1174       C  0.89983609  0.82301518  0.63459703    -0.39300
C1175       C  0.93016516  0.80180712  0.64271286     0.19500
C1176       C  0.96430757  0.81702968  0.64752508     0.22200
C1177       C  0.97042089  0.85498953  0.64537485    -0.39800
C1178       C  0.93990795  0.87629337  0.63783908     0.21000
N1179       N  0.88194111  0.88678014  0.62434228    -0.33100
C1180       C  0.90038923  0.91908089  0.62528694    -0.10700
C1181       C  0.93666137  0.91356431  0.63363836    -0.29500
N1182       N  0.98992933  0.79059742  0.65004302    -0.46100
C1183       C  0.97231125  0.75809170  0.64674602    -0.05300
C1184       C  0.93474220  0.76430084  0.64276520    -0.22700
H1185       H  0.87366373  0.81075100  0.62950592     0.19100
H1186       H  0.99732204  0.86693388  0.64841998     0.17900
H1187       H  0.95781770  0.93409462  0.63625721     0.14200
H1188       H  0.91471037  0.74443336  0.63595244     0.14000
H1189       H  0.85442858  0.88281426  0.61910848     0.32200
H1190       H  0.01833745  0.79463911  0.65003418     0.35000
C1191       C  0.81515590  0.55864336  0.64937972     0.20600
C1192       C  0.85255510  0.55244490  0.64406246    -0.39300
C1193       C  0.87361723  0.58359553  0.63800100     0.19500
C1194       C  0.85847284  0.61827433  0.63683982     0.22200
C1195       C  0.82124588  0.62455729  0.64258082    -0.39800
C1196       C  0.80027054  0.59345263  0.64906890     0.21000
N1197       N  0.78833987  0.53328182  0.65027329    -0.33100
C1198       C  0.75594101  0.55170807  0.65016996    -0.10700
C1199       C  0.76261108  0.58942288  0.65030544    -0.29500
N1200       N  0.88358507  0.64292779  0.62865996    -0.46100
C1201       C  0.91517278  0.62392419  0.62500909    -0.05300
C1202       C  0.91004532  0.58684653  0.63080182    -0.22700
H1203       H  0.86399995  0.52512530  0.64330550     0.19100
H1204       H  0.80901683  0.65143545  0.64066984     0.17900
H1205       H  0.74265760  0.61072976  0.64632501     0.14200
H1206       H  0.93018295  0.56513858  0.62956874     0.14000
H1207       H  0.79171945  0.50530413  0.64671337     0.32200
H1208       H  0.87965129  0.67103849  0.62609205     0.35000
C1209       C  0.23966386  0.73609490  0.62864974     0.20600
C1210       C  0.27779007  0.73044922  0.62944547    -0.39300
C1211       C  0.29945962  0.76191270  0.62660247     0.19500
C1212       C  0.28412524  0.79634620  0.62361215     0.22200
C1213       C  0.24598718  0.80191867  0.62235466    -0.39800
C1214       C  0.22432270  0.77037046  0.62483350     0.21000
N1215       N  0.21334720  0.71070318  0.63125037    -0.33100
C1216       C  0.18096202  0.72870926  0.62873696    -0.10700
C1217       C  0.18660305  0.76604436  0.62454022    -0.29500
N1218       N  0.31045238  0.82198093  0.62277725    -0.46100
C1219       C  0.34280622  0.80382267  0.62495608    -0.05300
C1220       C  0.33717462  0.76618910  0.62711218    -0.22700
H1221       H  0.28967117  0.70357089  0.63230626     0.19100
H1222       H  0.23409400  0.82886317  0.61987615     0.17900
H1223       H  0.16600052  0.78708954  0.62187756     0.14200
H1224       H  0.35772483  0.74508613  0.62972986     0.14000
H1225       H  0.21720791  0.68264096  0.63417339     0.32200
H1226       H  0.30665272  0.85023690  0.62105025     0.35000
C1227       C  0.07693398  0.54463053  0.78263335     0.20600
C1228       C  0.08314934  0.53734373  0.75554875    -0.39300
C1229       C  0.06328767  0.55898648  0.73735068     0.19500
C1230       C  0.03882448  0.58572924  0.74544177     0.22200
C1231       C  0.03263357  0.59301662  0.77248467    -0.39800
C1232       C  0.05263277  0.57155756  0.79065398     0.21000
N1233       N  0.09632907  0.53180472  0.80358893    -0.33100
C1234       C  0.08476469  0.55124436  0.82497673    -0.10700
C1235       C  0.05713408  0.57581583  0.81767929    -0.29500
N1236       N  0.02714102  0.60572401  0.72451172    -0.46100
C1237       C  0.04483202  0.59212683  0.70298684    -0.05300
C1238       C  0.06722133  0.56265386  0.71019930    -0.22700
H1239       H  0.10377186  0.51798491  0.74910712     0.19100
H1240       H  0.01535128  0.61540847  0.77890506     0.17900
H1241       H  0.04469551  0.59665876  0.83001754     0.14200
H1242       H  0.08643897  0.54813464  0.69766071     0.14000
H1243       H  0.11849771  0.51369662  0.80292093     0.32200
H1244       H  0.01091304  0.62927472  0.72520915     0.35000
C1245       C  0.21987660  0.59344002  0.50843235     0.20600
C1246       C  0.19019475  0.61671375  0.51342491    -0.39300
C1247       C  0.17128069  0.61028648  0.53716404     0.19500
C1248       C  0.18122177  0.58296066  0.55488395     0.22200
C1249       C  0.21084836  0.55923065  0.54969827    -0.39800
C1250       C  0.22968692  0.56546540  0.52565300     0.21000
N1251       N  0.24200476  0.59421465  0.48717103    -0.33100
C1252       C  0.26594010  0.56617266  0.49039101    -0.10700
C1253       C  0.25920330  0.54752377  0.51424719    -0.29500
N1254       N  0.16092209  0.58515198  0.57724554    -0.46100
C1255       C  0.13817731  0.61423713  0.57361746    -0.05300
C1256       C  0.14357243  0.63009640  0.54866642    -0.22700
H1257       H  0.18281044  0.63876719  0.50001965     0.19100
H1258       H  0.21900463  0.53796198  0.56352714     0.17900
H1259       H  0.27340974  0.52368863  0.52188849     0.14200
H1260       H  0.13112746  0.65485004  0.54092392     0.14000
H1261       H  0.24008681  0.61205329  0.47094121     0.32200
H1262       H  0.16419394  0.56959496  0.59456264     0.35000
C1263       C  0.10946271  0.85194838  0.48706657     0.20600
C1264       C  0.12030853  0.83021108  0.50872112    -0.39300
C1265       C  0.09529135  0.80322519  0.51659182     0.19500
C1266       C  0.06165490  0.79843750  0.50416387     0.22200
C1267       C  0.05091153  0.82006179  0.48218999    -0.39800
C1268       C  0.07633098  0.84688606  0.47398125     0.21000
N1269       N  0.12968586  0.87755612  0.47484614    -0.33100
C1270       C  0.11005429  0.88858174  0.45327618    -0.10700
C1271       C  0.07627423  0.87028204  0.45217209    -0.29500
N1272       N  0.04233763  0.77172604  0.51632812    -0.46100
C1273       C  0.06403137  0.75947293  0.53654167    -0.05300
C1274       C  0.09738565  0.77831995  0.53708110    -0.22700
H1275       H  0.14659329  0.83378316  0.51854201     0.19100
H1276       H  0.02498220  0.81594395  0.47201239     0.17900
H1277       H  0.05569683  0.87196412  0.43660549     0.14200
H1278       H  0.11951238  0.77542073  0.55140469     0.14000
H1279       H  0.15653187  0.88510604  0.47984273     0.32200
H1280       H  0.01567729  0.76320226  0.51171404     0.35000
loop_ 
_geom_bond_atom_site_label_1 
_geom_bond_atom_site_label_2 
_geom_bond_distance 
_geom_bond_site_symmetry_2 
_ccdc_geom_bond_type 
O1           Ni7   1.930       .  S
O1           C22   1.272       .  A
O2          Ni25   1.897       .  S
O2           C11   1.266       .  A
O3           Ni7   1.909       .  S
O3          Ni25   1.878       .  S
O3          Ni19   1.884       .  S
O3           H26   0.966       .  S
C4           O21   1.261       .  A
C4           O13   1.273       .  A
C4         C1201   1.480       .  S
O5          Ni24   1.940   1_455  S
O5           C11   1.274       .  A
O6          Ni24   1.883       .  S
O6            C8   1.269       .  A
Ni7          O10   1.930       .  S
Ni7          O12   1.916       .  S
C8           O18   1.293       .  A
C8         C1183   1.472       .  S
O9          Ni25   1.921       .  S
O9           C15   1.280       .  A
O10          C15   1.279       .  A
C11        C1273   1.479       .  S
O12          C14   1.267       .  A
O13         Ni24   1.957       .  S
C14          O20   1.269       .  A
C14        C1255   1.475       .  S
C15        C1216   1.470       .  S
H16          O17   0.966       .  S
O17         Ni25   1.950       .  S
O17         Ni19   1.920       .  S
O17         Ni24   1.919   1_455  S
O18         Ni19   1.988   1_655  S
Ni19         O23   1.919       .  S
Ni19         O21   1.902   1_455  S
O20         Ni25   1.922       .  S
C22          O23   1.273       .  A
C22        C1237   1.475       .  S
O27         Ni33   1.928       .  S
O27          C48   1.272       .  A
O28         Ni51   1.898       .  S
O28          C37   1.266       .  A
O29         Ni33   1.902       .  S
O29         Ni51   1.877       .  S
O29         Ni45   1.887       .  S
O29          H52   0.967       .  S
C30          O47   1.263       .  A
C30          O39   1.270       .  A
C30        C1090   1.478       .  S
O31         Ni50   1.933       .  S
O31          C37   1.272       .  A
O32         Ni50   1.884       .  S
O32          C34   1.271       .  A
Ni33         O36   1.931       .  S
Ni33         O38   1.914       .  S
C34          O44   1.290       .  A
C34        C1108   1.465       .  S
O35         Ni51   1.922       .  S
O35          C41   1.280       .  A
O36          C41   1.279       .  A
C37        C1162   1.475       .  S
O38          C40   1.267       .  A
O39         Ni50   1.942       .  S
C40          O46   1.270       .  A
C40        C1147   1.475       .  S
C41        C1126   1.467       .  S
H42          O43   0.966       .  S
O43         Ni51   1.954       .  S
O43         Ni45   1.924       .  S
O43         Ni50   1.918       .  S
O44         Ni45   1.977       .  S
Ni45         O49   1.922       .  S
Ni45         O47   1.910       .  S
O46         Ni51   1.929       .  S
C48          O49   1.273       .  A
C48        C1234   1.476       .  S
O53         Ni59   1.930       .  S
O53          C74   1.273       .  A
O54         Ni77   1.891       .  S
O54          C63   1.264       .  A
O55         Ni59   1.901       .  S
O55         Ni77   1.869       .  S
O55         Ni71   1.882       .  S
O55          H78   0.966       .  S
C56          O73   1.261       .  A
C56          O65   1.272       .  A
C56        C1000   1.483       .  S
O57         Ni76   1.941       .  S
O57          C63   1.274       .  A
O58         Ni76   1.883       .  S
O58          C60   1.271       .  A
Ni59         O62   1.935       .  S
Ni59         O64   1.915       .  S
C60          O70   1.293       .  A
C60        C1018   1.470       .  S
O61         Ni77   1.923       .  S
O61          C67   1.281       .  A
O62          C67   1.280       .  A
C63        C1072   1.476       .  S
O64          C66   1.267       .  A
O65         Ni76   1.952       .  S
C66          O72   1.267       .  A
C66        C1057   1.469       .  S
C67        C1219   1.469       .  S
H68          O69   0.966       .  S
O69         Ni77   1.954       .  S
O69         Ni71   1.919       .  S
O69         Ni76   1.917       .  S
O70         Ni71   1.983       .  S
Ni71         O75   1.916       .  S
Ni71         O73   1.907       .  S
O72         Ni77   1.917       .  S
C74          O75   1.273       .  A
C74        C1036   1.474       .  S
O79         Ni85   1.926       .  S
O79         C100   1.271       .  A
O80        Ni103   1.899       .  S
O80          C89   1.266       .  A
O81         Ni85   1.904       .  S
O81        Ni103   1.876       .  S
O81         Ni97   1.887   1_565  S
O81         H104   0.969       .  S
C82          O99   1.263       .  A
C82          O91   1.271       .  A
C82         C946   1.481       .  S
O83        Ni102   1.933       .  S
O83          C89   1.272   1_545  A
O84        Ni102   1.890       .  S
O84          C86   1.272       .  A
Ni85         O88   1.923       .  S
Ni85         O90   1.914       .  S
C86          O96   1.290       .  A
C86         C931   1.469       .  S
O87        Ni103   1.928       .  S
O87          C93   1.282       .  A
O88          C93   1.278       .  A
C89         C967   1.475       .  S
O90          C92   1.268       .  A
O91        Ni102   1.944       .  S
C92          O98   1.270       .  A
C92         C985   1.478       .  S
C93        C1129   1.470       .  S
H94          O95   0.964   1_565  S
O95        Ni103   1.956   1_545  S
O95         Ni97   1.924       .  S
O95        Ni102   1.920       .  S
O96         Ni97   1.978       .  S
Ni97        O101   1.919       .  S
Ni97         O99   1.910       .  S
O98        Ni103   1.927       .  S
C100        O101   1.273   1_565  A
C100       C1039   1.474       .  S
O105       Ni111   1.925       .  S
O105        C126   1.270       .  A
O106       Ni129   1.897       .  S
O106        C115   1.267       .  A
O107       Ni111   1.901       .  S
O107       Ni129   1.874       .  S
O107       Ni123   1.889       .  S
O107        H130   0.966       .  S
C108        O125   1.262       .  A
C108        O117   1.271       .  A
C108       C1021   1.482       .  S
O109       Ni128   1.932       .  S
O109        C115   1.273       .  A
O110       Ni128   1.884       .  S
O110        C112   1.271       .  A
Ni111       O114   1.928       .  S
Ni111       O116   1.912       .  S
C112        O122   1.293       .  A
C112       C1198   1.469       .  S
O113       Ni129   1.933       .  S
O113        C119   1.283       .  A
O114        C119   1.279       .  A
C115        C892   1.471       .  S
O116        C118   1.267       .  A
O117       Ni128   1.952       .  S
C118        O124   1.269       .  A
C118        C910   1.473       .  S
C119        C856   1.473       .  S
H120        O121   0.966       .  S
O121       Ni129   1.958       .  S
O121       Ni123   1.913       .  S
O121       Ni128   1.914       .  S
O122       Ni123   1.984       .  S
Ni123       O127   1.916       .  S
Ni123       O125   1.911       .  S
O124       Ni129   1.923       .  S
C126        O127   1.272       .  A
C126        C877   1.471       .  S
O131       Ni137   1.927       .  S
O131        C152   1.271       .  A
O132       Ni155   1.896       .  S
O132        C141   1.266       .  A
O133       Ni137   1.909       .  S
O133       Ni155   1.877       .  S
O133       Ni149   1.888       .  S
O133        H156   0.966       .  S
C134        O151   1.263       .  A
C134        O143   1.271       .  A
C134       C1111   1.477       .  S
O135       Ni154   1.938       .  S
O135        C141   1.272       .  A
O136       Ni154   1.887       .  S
O136        C138   1.271       .  A
Ni137       O140   1.929       .  S
Ni137       O142   1.916       .  S
C138        O148   1.292       .  A
C138        C949   1.471       .  S
O139       Ni155   1.924       .  S
O139        C145   1.281       .  A
O140        C145   1.279       .  A
C141        C820   1.479       .  S
O142        C144   1.267       .  A
O143       Ni154   1.942       .  S
C144        O150   1.268       .  A
C144        C802   1.475       .  S
C145        C838   1.472       .  S
H146        O147   0.966       .  S
O147       Ni155   1.951       .  S
O147       Ni149   1.924       .  S
O147       Ni154   1.921       .  S
O148       Ni149   1.982       .  S
Ni149       O153   1.924       .  S
Ni149       O151   1.906       .  S
O150       Ni155   1.919       .  S
C152        O153   1.273       .  A
C152        C874   1.476       .  S
O157       Ni163   1.934       .  S
O157        C178   1.273       .  A
O158       Ni181   1.900       .  S
O158        C167   1.267       .  A
O159       Ni163   1.908       .  S
O159       Ni181   1.876       .  S
O159       Ni175   1.888       .  S
O159        H182   0.966       .  S
C160        O177   1.263       .  A
C160        O169   1.272       .  A
C160       C1180   1.484       .  S
O161       Ni180   1.934   1_545  S
O161        C167   1.273       .  A
O162       Ni180   1.886   1_545  S
O162        C164   1.270   1_545  A
Ni163       O166   1.932       .  S
Ni163       O168   1.923       .  S
C164        O174   1.291   1_565  A
C164       C1003   1.471       .  S
O165       Ni181   1.926       .  S
O165        C171   1.282       .  A
O166        C171   1.280       .  A
C167        C784   1.477       .  S
O168        C170   1.270       .  A
O169       Ni180   1.951       .  S
C170        O176   1.269       .  A
C170        C766   1.480       .  S
C171        C859   1.474       .  S
H172        O173   0.966       .  S
O173       Ni181   1.956       .  S
O173       Ni175   1.919       .  S
O173       Ni180   1.919   1_545  S
O174       Ni175   1.982       .  S
Ni175       O179   1.914       .  S
Ni175       O177   1.908   1_545  S
O176       Ni181   1.923       .  S
C178        O179   1.272       .  A
C178        C751   1.474       .  S
O183       Ni189   1.932       .  S
O183        C204   1.273       .  A
O184       Ni207   1.899       .  S
O184        C193   1.267       .  A
O185       Ni189   1.901       .  S
O185       Ni207   1.875       .  S
O185       Ni201   1.880       .  S
O185        H208   0.966       .  S
C186        O203   1.260       .  A
C186        O195   1.271       .  A
C186        C928   1.477       .  S
O187       Ni206   1.935       .  S
O187        C193   1.273   1_455  A
O188       Ni206   1.883       .  S
O188        C190   1.270       .  A
Ni189       O192   1.936       .  S
Ni189       O194   1.913       .  S
C190        O200   1.291       .  A
C190       C1093   1.467       .  S
O191       Ni207   1.919       .  S
O191        C197   1.279       .  A
O192        C197   1.279       .  A
C193        C712   1.475       .  S
O194        C196   1.267       .  A
O195       Ni206   1.950       .  S
C196        O202   1.271       .  A
C196        C730   1.475       .  S
C197        C841   1.468       .  S
H198        O199   0.966       .  S
O199       Ni207   1.951       .  S
O199       Ni201   1.919       .  S
O199       Ni206   1.918   1_655  S
O200       Ni201   1.981   1_455  S
Ni201       O205   1.915       .  S
Ni201       O203   1.900   1_655  S
O202       Ni207   1.932       .  S
C204        O205   1.272       .  A
C204        C748   1.474       .  S
O209       Ni215   1.933       .  S
O209        C230   1.271       .  A
O210       Ni233   1.919       .  S
O210        C219   1.273       .  A
O211       Ni215   1.917       .  S
O211       Ni233   1.923       .  S
O211       Ni227   1.951       .  S
O211        H234   0.966       .  S
C212        O229   1.279       .  A
C212        O221   1.278       .  A
C212        C679   1.466       .  S
O213       Ni232   1.930       .  S
O213        C219   1.272       .  A
O214       Ni232   1.912       .  S
O214        C216   1.267       .  A
Ni215       O218   1.941       .  S
Ni215       O220   1.885       .  S
C216        O226   1.271       .  A
C216        C715   1.473       .  S
O217       Ni233   1.906       .  S
O217        C223   1.261       .  A
O218        C223   1.270       .  A
C219        C694   1.474       .  S
O220        C222   1.271       .  A
O221       Ni232   1.932       .  S
C222        O228   1.291       .  A
C222        C658   1.468       .  S
C223        C640   1.476       .  S
H224        O225   0.967       .  S
O225       Ni233   1.884       .  S
O225       Ni227   1.876       .  S
O225       Ni232   1.905       .  S
O226       Ni227   1.927       .  S
Ni227       O231   1.898       .  S
Ni227       O229   1.920       .  S
O228       Ni233   1.980       .  S
C230        O231   1.266       .  A
C230        C805   1.475       .  S
O235       Ni241   1.939       .  S
O235        C256   1.274   1_455  A
O236       Ni259   1.919   1_455  S
O236        C245   1.272   1_455  A
O237       Ni241   1.917   1_655  S
O237       Ni259   1.922       .  S
O237       Ni253   1.956       .  S
O237        H260   0.966       .  S
C238        O255   1.282       .  A
C238        O247   1.278       .  A
C238        C625   1.470       .  S
O239       Ni258   1.927       .  S
O239        C245   1.271       .  A
O240       Ni258   1.916       .  S
O240        C242   1.268       .  A
Ni241       O244   1.955       .  S
Ni241       O246   1.885       .  S
C242        O252   1.268       .  A
C242        C895   1.472       .  S
O243       Ni259   1.910   1_455  S
O243        C249   1.263       .  A
O244        C249   1.273       .  A
C245        C697   1.475       .  S
O246        C248   1.271       .  A
O247       Ni258   1.924       .  S
C248        O254   1.290       .  A
C248        C586   1.465       .  S
C249        C604   1.486       .  S
H250        O251   0.966       .  S
O251       Ni259   1.886       .  S
O251       Ni253   1.879       .  S
O251       Ni258   1.905       .  S
O252       Ni253   1.915       .  S
Ni253       O257   1.905       .  S
Ni253       O255   1.929       .  S
O254       Ni259   1.976   1_455  S
C256        O257   1.267       .  A
C256        C769   1.482       .  S
O261       Ni267   1.938   1_545  S
O261        C282   1.272       .  A
O262       Ni285   1.919       .  S
O262        C271   1.273       .  A
O263       Ni267   1.925   1_545  S
O263       Ni285   1.929       .  S
O263       Ni279   1.950       .  S
O263        H286   0.966       .  S
C264        O281   1.279       .  A
C264        O273   1.279       .  A
C264        C676   1.469       .  S
O265       Ni284   1.933       .  S
O265        C271   1.272       .  A
O266       Ni284   1.920       .  S
O266        C268   1.269       .  A
Ni267       O270   1.942       .  S
Ni267       O272   1.881       .  S
C268        O278   1.270       .  A
C268        C823   1.478       .  S
O269       Ni285   1.907   1_565  S
O269        C275   1.262       .  A
O270        C275   1.271       .  A
C271        C571   1.476       .  S
O272        C274   1.269       .  A
O273       Ni284   1.930       .  S
C274        O280   1.291   1_565  A
C274        C532   1.470       .  S
C275        C553   1.478       .  S
H276        O277   0.967       .  S
O277       Ni285   1.885       .  S
O277       Ni279   1.878       .  S
O277       Ni284   1.909       .  S
O278       Ni279   1.928       .  S
Ni279       O283   1.895       .  S
Ni279       O281   1.921       .  S
O280       Ni285   1.981       .  S
C282        O283   1.265       .  A
C282        C733   1.478       .  S
O287       Ni293   1.935       .  S
O287        C308   1.273       .  A
O288       Ni311   1.917       .  S
O288        C297   1.272       .  A
O289       Ni293   1.916       .  S
O289       Ni311   1.915       .  S
O289       Ni305   1.954       .  S
O289        H312   0.966       .  S
C290        O307   1.281       .  A
C290        O299   1.279       .  A
C290        C622   1.465       .  S
O291       Ni310   1.930       .  S
O291        C297   1.272       .  A
O292       Ni310   1.917       .  S
O292        C294   1.269       .  A
Ni293       O296   1.952       .  S
Ni293       O298   1.885       .  S
C294        O304   1.269       .  A
C294        C787   1.476       .  S
O295       Ni311   1.900       .  S
O295        C301   1.260       .  A
O296        C301   1.271       .  A
C297        C568   1.475       .  S
O298        C300   1.272       .  A
O299       Ni310   1.926       .  S
C300        O306   1.292       .  A
C300        C517   1.468       .  S
C301        C496   1.478       .  S
H302        O303   0.967       .  S
O303       Ni311   1.881       .  S
O303       Ni305   1.875       .  S
O303       Ni310   1.900       .  S
O304       Ni305   1.926       .  S
Ni305       O309   1.899       .  S
Ni305       O307   1.923       .  S
O306       Ni311   1.983       .  S
C308        O309   1.267       .  A
C308        C913   1.474       .  S
O313       Ni319   1.935       .  S
O313        C334   1.273       .  A
O314       Ni337   1.924       .  S
O314        C323   1.274       .  A
O315       Ni319   1.916       .  S
O315       Ni337   1.919       .  S
O315       Ni331   1.953       .  S
O315        H338   0.966       .  S
C316        O333   1.280       .  A
C316        O325   1.279       .  A
C316        C460   1.468       .  S
O317       Ni336   1.928       .  S
O317        C323   1.271       .  A
O318       Ni336   1.915       .  S
O318        C320   1.268       .  A
Ni319       O322   1.949       .  S
Ni319       O324   1.883       .  S
C320        O330   1.269       .  A
C320       C1165   1.473       .  S
O321       Ni337   1.905       .  S
O321        C327   1.262       .  A
O322        C327   1.271       .  A
C323        C478   1.476       .  S
O324        C326   1.270       .  A
O325       Ni336   1.928       .  S
C326        O332   1.293       .  A
C326        C550   1.468       .  S
C327        C661   1.478       .  S
H328        O329   0.967       .  S
O329       Ni337   1.884       .  S
O329       Ni331   1.876       .  S
O329       Ni336   1.902       .  S
O330       Ni331   1.923       .  S
Ni331       O335   1.900       .  S
Ni331       O333   1.923       .  S
O332       Ni337   1.984       .  S
C334        O335   1.267       .  A
C334        C982   1.477       .  S
O339       Ni345   1.934       .  S
O339        C360   1.273       .  A
O340       Ni363   1.922       .  S
O340        C349   1.273       .  A
O341       Ni345   1.914       .  S
O341       Ni363   1.917       .  S
O341       Ni357   1.955       .  S
O341        H364   0.966       .  S
C342        O359   1.283       .  A
C342        O351   1.280       .  A
C342        C445   1.473       .  S
O343       Ni362   1.930       .  S
O343        C349   1.272       .  A
O344       Ni362   1.918       .  S
O344        C346   1.268       .  A
Ni345       O348   1.949       .  S
Ni345       O350   1.886       .  S
C346        O356   1.269       .  A
C346       C1075   1.475       .  S
O347       Ni363   1.903       .  S
O347        C353   1.260       .  A
O348        C353   1.271       .  A
C349        C481   1.478       .  S
O350        C352   1.272       .  A
O351       Ni362   1.930       .  S
C352        O358   1.294       .  A
C352        C607   1.473       .  S
C353        C514   1.477       .  S
H354        O355   0.967       .  S
O355       Ni363   1.881       .  S
O355       Ni357   1.876       .  S
O355       Ni362   1.899       .  S
O356       Ni357   1.924       .  S
Ni357       O361   1.902       .  S
Ni357       O359   1.929       .  S
O358       Ni363   1.988       .  S
C360        O361   1.268       .  A
C360       C1252   1.476       .  S
O365       Ni371   1.937   1_455  S
O365        C386   1.272       .  A
O366       Ni389   1.923       .  S
O366        C375   1.274       .  A
O367       Ni371   1.920   1_455  S
O367       Ni389   1.922       .  S
O367       Ni383   1.950       .  S
O367        H390   0.966       .  S
C368        O385   1.279       .  A
C368        O377   1.279       .  A
C368        C463   1.470       .  S
O369       Ni388   1.936       .  S
O369        C375   1.274       .  A
O370       Ni388   1.919       .  S
O370        C372   1.269       .  A
Ni371       O374   1.949       .  S
Ni371       O376   1.887       .  S
C372        O382   1.269       .  A
C372        C964   1.475       .  S
O373       Ni389   1.906   1_655  S
O373        C379   1.263       .  A
O374        C379   1.272       .  A
C375        C424   1.480       .  S
O376        C378   1.271       .  A
O377       Ni388   1.933       .  S
C378        O384   1.290       .  A
C378        C643   1.467       .  S
C379        C535   1.481       .  S
H380        O381   0.967       .  S
O381       Ni389   1.886       .  S
O381       Ni383   1.880       .  S
O381       Ni388   1.909       .  S
O382       Ni383   1.919       .  S
Ni383       O387   1.898       .  S
Ni383       O385   1.920       .  S
O384       Ni389   1.977   1_655  S
C386        O387   1.266       .  A
C386       C1144   1.479       .  S
O391       Ni397   1.928       .  S
O391        C412   1.271   1_545  A
O392       Ni415   1.920       .  S
O392        C401   1.273   1_545  A
O393       Ni397   1.920   1_565  S
O393       Ni415   1.920   1_565  S
O393       Ni409   1.956       .  S
O393        H416   0.966       .  S
C394        O411   1.283       .  A
C394        O403   1.279       .  A
C394        C442   1.474       .  S
O395       Ni414   1.930       .  S
O395        C401   1.272       .  A
O396       Ni414   1.922       .  S
O396        C398   1.269       .  A
Ni397       O400   1.942       .  S
Ni397       O402   1.888       .  S
C398        O408   1.267       .  A
C398       C1270   1.479       .  S
O399       Ni415   1.907       .  S
O399        C405   1.263       .  A
O400        C405   1.270       .  A
C401        C427   1.477       .  S
O402        C404   1.271       .  A
O403       Ni414   1.930       .  S
C404        O410   1.291       .  A
C404        C499   1.472       .  S
C405        C589   1.477       .  S
H406        O407   0.966       .  S
O407       Ni415   1.891   1_565  S
O407       Ni409   1.877       .  S
O407       Ni414   1.910       .  S
O408       Ni409   1.920       .  S
Ni409       O413   1.896       .  S
Ni409       O411   1.931       .  S
O410       Ni415   1.983       .  S
C412        O413   1.266       .  A
C412       C1054   1.470       .  S
C417        C422   1.384       .  A
C417        C418   1.407       .  A
C417        N423   1.344       .  A
C418        C419   1.404       .  A
C418        H429   1.082   1_565  S
C419        C428   1.385   1_565  A
C419        C420   1.384       .  A
C420        C421   1.407       .  A
C420        N426   1.343       .  A
C421        C422   1.405       .  A
C421        H430   1.082       .  S
C422        C425   1.385       .  A
N423        C424   1.358       .  A
N423        H433   1.045       .  S
C424        C425   1.397       .  A
C425        H431   1.082       .  S
N426        C427   1.357       .  A
N426        H434   1.045       .  S
C427        C428   1.396   1_565  A
C428        H432   1.082       .  S
C435        C440   1.384       .  A
C435        C436   1.409       .  A
C435        N441   1.342       .  A
C436        C437   1.405       .  A
C436        H447   1.082       .  S
C437        C446   1.387       .  A
C437        C438   1.384       .  A
C438        C439   1.404       .  A
C438        N444   1.339       .  A
C439        C440   1.400       .  A
C439        H448   1.082       .  S
C440        C443   1.383       .  A
N441        C442   1.358       .  A
N441        H451   1.045       .  S
C442        C443   1.394       .  A
C443        H449   1.082       .  S
N444        C445   1.356       .  A
N444        H452   1.045       .  S
C445        C446   1.397       .  A
C446        H450   1.082       .  S
C453        C458   1.385       .  A
C453        C454   1.402       .  A
C453        N459   1.347       .  A
C454        C455   1.404       .  A
C454        H465   1.082       .  S
C455        C464   1.373       .  A
C455        C456   1.385       .  A
C456        C457   1.401       .  A
C456        N462   1.346       .  A
C457        C458   1.403       .  A
C457        H466   1.082       .  S
C458        C461   1.371       .  A
N459        C460   1.355       .  A
N459        H469   1.045       .  S
C460        C461   1.395       .  A
C461        H467   1.083       .  S
N462        C463   1.354       .  A
N462        H470   1.045       .  S
C463        C464   1.396       .  A
C464        H468   1.083       .  S
C471        C476   1.385       .  A
C471        C472   1.404       .  A
C471        N477   1.348       .  A
C472        C473   1.405       .  A
C472        H483   1.082       .  S
C473        C482   1.377       .  A
C473        C474   1.384       .  A
C474        C475   1.405       .  A
C474        N480   1.349       .  A
C475        C476   1.406       .  A
C475        H484   1.082       .  S
C476        C479   1.377       .  A
N477        C478   1.356       .  A
N477        H487   1.045       .  S
C478        C479   1.398       .  A
C479        H485   1.083       .  S
N480        C481   1.357       .  A
N480        H488   1.045       .  S
C481        C482   1.397       .  A
C482        H486   1.083       .  S
C489        C494   1.383       .  A
C489        C490   1.406       .  A
C489        N495   1.348       .  A
C490        C491   1.408       .  A
C490        H501   1.082       .  S
C491        C500   1.380       .  A
C491        C492   1.383       .  A
C492        C493   1.406       .  A
C492        N498   1.347       .  A
C493        C494   1.404       .  A
C493        H502   1.082       .  S
C494        C497   1.380       .  A
N495        C496   1.357       .  A
N495        H505   1.045       .  S
C496        C497   1.396       .  A
C497        H503   1.082       .  S
N498        C499   1.357       .  A
N498        H506   1.045       .  S
C499        C500   1.400       .  A
C500        H504   1.083       .  S
C507        C512   1.383       .  A
C507        C508   1.405       .  A
C507        N513   1.346       .  A
C508        C509   1.406       .  A
C508        H519   1.082       .  S
C509        C518   1.380       .  A
C509        C510   1.383       .  A
C510        C511   1.407       .  A
C510        N516   1.346       .  A
C511        C512   1.405       .  A
C511        H520   1.082       .  S
C512        C515   1.381       .  A
N513        C514   1.356       .  A
N513        H523   1.045       .  S
C514        C515   1.397       .  A
C515        H521   1.082       .  S
N516        C517   1.358       .  A
N516        H524   1.045       .  S
C517        C518   1.398       .  A
C518        H522   1.083       .  S
C525        C530   1.382       .  A
C525        C526   1.407       .  A
C525        N531   1.348       .  A
C526        C527   1.406       .  A
C526        H537   1.082   1_565  S
C527        C536   1.381       .  A
C527        C528   1.383       .  A
C528        C529   1.406       .  A
C528        N534   1.347       .  A
C529        C530   1.407       .  A
C529        H538   1.082       .  S
C530        C533   1.379       .  A
N531        C532   1.358       .  A
N531        H541   1.045   1_565  S
C532        C533   1.400       .  A
C533        H539   1.083       .  S
N534        C535   1.357       .  A
N534        H542   1.045       .  S
C535        C536   1.398       .  A
C536        H540   1.082       .  S
C543        C548   1.382       .  A
C543        C544   1.410       .  A
C543        N549   1.348       .  A
C544        C545   1.408       .  A
C544        H555   1.082       .  S
C545        C554   1.385       .  A
C545        C546   1.383       .  A
C546        C547   1.403       .  A
C546        N552   1.344       .  A
C547        C548   1.404       .  A
C547        H556   1.082       .  S
C548        C551   1.378       .  A
N549        C550   1.360       .  A
N549        H559   1.045       .  S
C550        C551   1.397       .  A
C551        H557   1.083       .  S
N552        C553   1.355       .  A
N552        H560   1.045       .  S
C553        C554   1.399       .  A
C554        H558   1.082       .  S
C561        C566   1.384       .  A
C561        C562   1.405       .  A
C561        N567   1.343       .  A
C562        C563   1.403       .  A
C562        H573   1.082       .  S
C563        C572   1.383       .  A
C563        C564   1.384       .  A
C564        C565   1.407       .  A
C564        N570   1.344       .  A
C565        C566   1.404       .  A
C565        H574   1.082       .  S
C566        C569   1.383       .  A
N567        C568   1.357       .  A
N567        H577   1.045       .  S
C568        C569   1.396       .  A
C569        H575   1.082       .  S
N570        C571   1.357       .  A
N570        H578   1.045       .  S
C571        C572   1.396       .  A
C572        H576   1.082       .  S
C579        C584   1.383       .  A
C579        C580   1.405       .  A
C579        N585   1.342       .  A
C580        C581   1.402       .  A
C580        H591   1.082       .  S
C581        C590   1.380       .  A
C581        C582   1.383       .  A
C582        C583   1.407       .  A
C582        N588   1.346       .  A
C583        C584   1.407       .  A
C583        H592   1.082       .  S
C584        C587   1.383       .  A
N585        C586   1.356       .  A
N585        H595   1.045       .  S
C586        C587   1.399       .  A
C587        H593   1.083   1_455  S
N588        C589   1.357       .  A
N588        H596   1.045       .  S
C589        C590   1.396       .  A
C590        H594   1.083       .  S
C597        C602   1.383       .  A
C597        C598   1.408       .  A
C597        N603   1.348       .  A
C598        C599   1.409       .  A
C598        H609   1.082       .  S
C599        C608   1.385       .  A
C599        C600   1.382       .  A
C600        C601   1.409       .  A
C600        N606   1.346       .  A
C601        C602   1.406       .  A
C601        H610   1.082       .  S
C602        C605   1.384       .  A
N603        C604   1.359       .  A
N603        H613   1.045       .  S
C604        C605   1.398       .  A
C605        H611   1.082       .  S
N606        C607   1.359       .  A
N606        H614   1.045       .  S
C607        C608   1.400       .  A
C608        H612   1.083       .  S
C615        C620   1.386       .  A
C615        C616   1.400       .  A
C615        N621   1.346       .  A
C616        C617   1.402       .  A
C616        H627   1.082       .  S
C617        C626   1.370       .  A
C617        C618   1.385       .  A
C618        C619   1.402       .  A
C618        N624   1.348       .  A
C619        C620   1.404       .  A
C619        H628   1.082       .  S
C620        C623   1.371       .  A
N621        C622   1.353       .  A
N621        H631   1.045       .  S
C622        C623   1.395       .  A
C623        H629   1.083       .  S
N624        C625   1.355       .  A
N624        H632   1.045       .  S
C625        C626   1.395       .  A
C626        H630   1.083       .  S
C633        C638   1.383       .  A
C633        C634   1.408       .  A
C633        N639   1.347       .  A
C634        C635   1.408       .  A
C634        H645   1.082       .  S
C635        C644   1.384       .  A
C635        C636   1.383       .  A
C636        C637   1.404       .  A
C636        N642   1.343       .  A
C637        C638   1.401       .  A
C637        H646   1.082       .  S
C638        C641   1.378       .  A
N639        C640   1.358       .  A
N639        H649   1.045       .  S
C640        C641   1.394       .  A
C641        H647   1.082       .  S
N642        C643   1.356       .  A
N642        H650   1.045       .  S
C643        C644   1.400       .  A
C644        H648   1.083   1_655  S
C651        C656   1.383       .  A
C651        C652   1.407       .  A
C651        N657   1.347       .  A
C652        C653   1.406       .  A
C652        H663   1.082       .  S
C653        C662   1.382       .  A
C653        C654   1.383       .  A
C654        C655   1.404       .  A
C654        N660   1.346       .  A
C655        C656   1.406       .  A
C655        H664   1.082       .  S
C656        C659   1.378       .  A
N657        C658   1.358       .  A
N657        H667   1.045       .  S
C658        C659   1.398       .  A
C659        H665   1.083       .  S
N660        C661   1.356       .  A
N660        H668   1.045       .  S
C661        C662   1.398       .  A
C662        H666   1.082       .  S
C669        C674   1.384       .  A
C669        C670   1.403       .  A
C669        N675   1.338       .  A
C670        C671   1.399       .  A
C670        H681   1.082       .  S
C671        C680   1.381       .  A
C671        C672   1.384       .  A
C672        C673   1.405       .  A
C672        N678   1.340       .  A
C673        C674   1.402       .  A
C673        H682   1.082       .  S
C674        C677   1.383       .  A
N675        C676   1.355       .  A
N675        H685   1.045       .  S
C676        C677   1.395       .  A
C677        H683   1.082       .  S
N678        C679   1.356       .  A
N678        H686   1.045       .  S
C679        C680   1.393       .  A
C680        H684   1.082       .  S
C687        C692   1.384       .  A
C687        C688   1.405       .  A
C687        N693   1.342       .  A
C688        C689   1.403       .  A
C688        H699   1.082   1_655  S
C689        C698   1.383       .  A
C689        C690   1.384       .  A
C690        C691   1.406       .  A
C690        N696   1.343       .  A
C691        C692   1.404       .  A
C691        H700   1.082       .  S
C692        C695   1.384       .  A
N693        C694   1.357       .  A
N693        H703   1.045       .  S
C694        C695   1.396       .  A
C695        H701   1.082       .  S
N696        C697   1.357       .  A
N696        H704   1.045       .  S
C697        C698   1.395       .  A
C698        H702   1.082   1_655  S
C705        C710   1.384       .  A
C705        C706   1.399       .  A
C705        N711   1.339   1_554  A
C706        C707   1.398       .  A
C706        H717   1.083   1_554  S
C707        C716   1.372       .  A
C707        C708   1.384       .  A
C708        C709   1.410       .  A
C708        N714   1.348       .  A
C709        C710   1.409       .  A
C709        H718   1.082       .  S
C710        C713   1.386       .  A
N711        C712   1.354       .  A
N711        H721   1.045       .  S
C712        C713   1.399   1_556  A
C713        H719   1.082   1_655  S
N714        C715   1.359       .  A
N714        H722   1.045       .  S
C715        C716   1.393       .  A
C716        H720   1.083       .  S
C723        C728   1.384       .  A
C723        C724   1.399   1_556  A
C723        N729   1.340       .  A
C724        C725   1.398       .  A
C724        H735   1.083       .  S
C725        C734   1.371       .  A
C725        C726   1.383       .  A
C726        C727   1.410   1_554  A
C726        N732   1.350       .  A
C727        C728   1.410       .  A
C727        H736   1.082       .  S
C728        C731   1.385       .  A
N729        C730   1.354       .  A
N729        H739   1.045       .  S
C730        C731   1.400       .  A
C731        H737   1.082       .  S
N732        C733   1.360       .  A
N732        H740   1.044       .  S
C733        C734   1.394       .  A
C734        H738   1.083       .  S
C741        C746   1.384       .  A
C741        C742   1.404       .  A
C741        N747   1.342       .  A
C742        C743   1.402       .  A
C742        H753   1.082       .  S
C743        C752   1.381       .  A
C743        C744   1.384       .  A
C744        C745   1.406       .  A
C744        N750   1.344       .  A
C745        C746   1.404       .  A
C745        H754   1.082   1_655  S
C746        C749   1.383       .  A
N747        C748   1.356       .  A
N747        H757   1.045       .  S
C748        C749   1.396       .  A
C749        H755   1.082   1_655  S
N750        C751   1.357       .  A
N750        H758   1.045       .  S
C751        C752   1.395       .  A
C752        H756   1.082       .  S
C759        C764   1.383       .  A
C759        C760   1.410       .  A
C759        N765   1.350       .  A
C760        C761   1.410       .  A
C760        H771   1.082       .  S
C761        C770   1.386       .  A
C761        C762   1.383       .  A
C762        C763   1.402       .  A
C762        N768   1.343       .  A
C763        C764   1.402       .  A
C763        H772   1.083       .  S
C764        C767   1.375       .  A
N765        C766   1.359       .  A
N765        H775   1.044       .  S
C766        C767   1.397       .  A
C767        H773   1.083       .  S
N768        C769   1.356       .  A
N768        H776   1.045       .  S
C769        C770   1.400       .  A
C770        H774   1.082   1_655  S
C777        C782   1.384       .  A
C777        C778   1.408       .  A
C777        N783   1.347       .  A
C778        C779   1.407       .  A
C778        H789   1.082       .  S
C779        C788   1.385       .  A
C779        C780   1.384       .  A
C780        C781   1.402       .  A
C780        N786   1.341       .  A
C781        C782   1.400       .  A
C781        H790   1.083       .  S
C782        C785   1.376       .  A
N783        C784   1.358       .  A
N783        H793   1.044       .  S
C784        C785   1.395       .  A
C785        H791   1.083       .  S
N786        C787   1.356       .  A
N786        H794   1.045       .  S
C787        C788   1.399       .  A
C788        H792   1.082       .  S
C795        C800   1.384       .  A
C795        C796   1.410       .  A
C795        N801   1.350       .  A
C796        C797   1.410   1_556  A
C796        H807   1.082       .  S
C797        C806   1.386       .  A
C797        C798   1.384       .  A
C798        C799   1.398       .  A
C798        N804   1.339       .  A
C799        C800   1.397   1_554  A
C799        H808   1.083       .  S
C800        C803   1.370       .  A
N801        C802   1.359       .  A
N801        H811   1.045       .  S
C802        C803   1.394       .  A
C803        H809   1.083       .  S
N804        C805   1.354       .  A
N804        H812   1.045       .  S
C805        C806   1.400       .  A
C806        H810   1.082       .  S
C813        C818   1.383       .  A
C813        C814   1.412       .  A
C813        N819   1.351       .  A
C814        C815   1.412       .  A
C814        H825   1.082       .  S
C815        C824   1.389       .  A
C815        C816   1.384       .  A
C816        C817   1.399       .  A
C816        N822   1.339       .  A
C817        C818   1.397       .  A
C817        H826   1.083       .  S
C818        C821   1.372   1_554  A
N819        C820   1.360   1_554  A
N819        H829   1.044       .  S
C820        C821   1.394       .  A
C821        H827   1.083       .  S
N822        C823   1.355       .  A
N822        H830   1.045       .  S
C823        C824   1.402       .  A
C824        H828   1.082       .  S
C831        C836   1.384       .  A
C831        C832   1.404       .  A
C831        N837   1.340       .  A
C832        C833   1.401       .  A
C832        H843   1.082       .  S
C833        C842   1.381       .  A
C833        C834   1.384       .  A
C834        C835   1.405       .  A
C834        N840   1.341       .  A
C835        C836   1.402       .  A
C835        H844   1.082       .  S
C836        C839   1.383       .  A
N837        C838   1.357       .  A
N837        H847   1.045       .  S
C838        C839   1.395       .  A
C839        H845   1.082       .  S
N840        C841   1.356       .  A
N840        H848   1.045       .  S
C841        C842   1.394       .  A
C842        H846   1.082       .  S
C849        C854   1.385       .  A
C849        C850   1.404       .  A
C849        N855   1.349       .  A
C850        C851   1.406       .  A
C850        H861   1.082       .  S
C851        C860   1.375       .  A
C851        C852   1.385       .  A
C852        C853   1.402       .  A
C852        N858   1.347       .  A
C853        C854   1.404       .  A
C853        H862   1.082       .  S
C854        C857   1.373       .  A
N855        C856   1.356       .  A
N855        H865   1.044       .  S
C856        C857   1.396       .  A
C857        H863   1.083       .  S
N858        C859   1.355       .  A
N858        H866   1.045       .  S
C859        C860   1.397       .  A
C860        H864   1.083       .  S
C867        C872   1.385       .  A
C867        C868   1.405       .  A
C867        N873   1.348       .  A
C868        C869   1.405       .  A
C868        H879   1.082       .  S
C869        C878   1.376       .  A
C869        C870   1.385       .  A
C870        C871   1.402       .  A
C870        N876   1.346       .  A
C871        C872   1.404       .  A
C871        H880   1.082       .  S
C872        C875   1.375       .  A
N873        C874   1.356       .  A
N873        H883   1.045       .  S
C874        C875   1.397       .  A
C875        H881   1.083       .  S
N876        C877   1.355       .  A
N876        H884   1.045       .  S
C877        C878   1.397       .  A
C878        H882   1.083       .  S
C885        C890   1.385       .  A
C885        C886   1.398       .  A
C885        N891   1.339       .  A
C886        C887   1.397       .  A
C886        H897   1.083       .  S
C887        C896   1.369       .  A
C887        C888   1.384       .  A
C888        C889   1.408       .  A
C888        N894   1.348       .  A
C889        C890   1.408       .  A
C889        H898   1.082       .  S
C890        C893   1.382       .  A
N891        C892   1.354       .  A
N891        H901   1.045       .  S
C892        C893   1.398       .  A
C893        H899   1.082       .  S
N894        C895   1.358       .  A
N894        H902   1.045       .  S
C895        C896   1.394       .  A
C896        H900   1.083       .  S
C903        C908   1.384       .  A
C903        C904   1.407       .  A
C903        N909   1.347       .  A
C904        C905   1.407       .  A
C904        H915   1.082       .  S
C905        C914   1.384       .  A
C905        C906   1.384       .  A
C906        C907   1.401       .  A
C906        N912   1.340       .  A
C907        C908   1.399       .  A
C907        H916   1.083       .  S
C908        C911   1.374       .  A
N909        C910   1.358       .  A
N909        H919   1.045       .  S
C910        C911   1.395       .  A
C911        H917   1.083       .  S
N912        C913   1.355       .  A
N912        H920   1.045       .  S
C913        C914   1.398       .  A
C914        H918   1.082       .  S
C921        C926   1.383       .  A
C921        C922   1.406       .  A
C921        N927   1.346       .  A
C922        C923   1.406       .  A
C922        H933   1.082       .  S
C923        C932   1.383       .  A
C923        C924   1.384       .  A
C924        C925   1.406       .  A
C924        N930   1.344       .  A
C925        C926   1.403       .  A
C925        H934   1.082       .  S
C926        C929   1.381       .  A
N927        C928   1.357       .  A
N927        H937   1.045       .  S
C928        C929   1.395       .  A
C929        H935   1.082       .  S
N930        C931   1.357       .  A
N930        H938   1.045       .  S
C931        C932   1.398       .  A
C932        H936   1.083       .  S
C939        C944   1.383       .  A
C939        C940   1.408       .  A
C939        N945   1.348       .  A
C940        C941   1.408       .  A
C940        H951   1.082       .  S
C941        C950   1.385       .  A
C941        C942   1.383       .  A
C942        C943   1.407       .  A
C942        N948   1.344       .  A
C943        C944   1.404       .  A
C943        H952   1.083       .  S
C944        C947   1.381       .  A
N945        C946   1.358       .  A
N945        H955   1.045       .  S
C946        C947   1.397       .  A
C947        H953   1.083       .  S
N948        C949   1.358       .  A
N948        H956   1.045       .  S
C949        C950   1.399       .  A
C950        H954   1.082       .  S
C957        C962   1.383       .  A
C957        C958   1.410       .  A
C957        N963   1.350       .  A
C958        C959   1.410       .  A
C958        H969   1.082   1_565  S
C959        C968   1.386       .  A
C959        C960   1.384       .  A
C960        C961   1.398       .  A
C960        N966   1.339   1_554  A
C961        C962   1.398       .  A
C961        H970   1.083       .  S
C962        C965   1.370       .  A
N963        C964   1.359       .  A
N963        H973   1.044       .  S
C964        C965   1.394       .  A
C965        H971   1.083       .  S
N966        C967   1.354       .  A
N966        H974   1.045       .  S
C967        C968   1.400   1_556  A
C968        H972   1.082   1_565  S
C975        C980   1.384       .  A
C975        C976   1.409   1_554  A
C975        N981   1.349       .  A
C976        C977   1.409       .  A
C976        H987   1.082       .  S
C977        C986   1.385       .  A
C977        C978   1.384       .  A
C978        C979   1.401   1_556  A
C978        N984   1.342       .  A
C979        C980   1.400       .  A
C979        H988   1.083       .  S
C980        C983   1.374       .  A
N981        C982   1.359       .  A
N981        H991   1.044       .  S
C982        C983   1.395       .  A
C983        H989   1.083       .  S
N984        C985   1.356       .  A
N984        H992   1.045       .  S
C985        C986   1.400       .  A
C986        H990   1.082       .  S
C993        C998   1.383       .  A
C993        C994   1.409       .  A
C993        N999   1.348       .  A
C994        C995   1.409       .  A
C994       H1005   1.082   1_565  S
C995       C1004   1.385       .  A
C995        C996   1.383       .  A
C996        C997   1.407       .  A
C996       N1002   1.345       .  A
C997        C998   1.404       .  A
C997       H1006   1.082       .  S
C998       C1001   1.382       .  A
N999       C1000   1.359       .  A
N999       H1009   1.045       .  S
C1000      C1001   1.396       .  A
C1001      H1007   1.082       .  S
N1002      C1003   1.358       .  A
N1002      H1010   1.045       .  S
C1003      C1004   1.401       .  A
C1004      H1008   1.083   1_565  S
C1011      C1016   1.383       .  A
C1011      C1012   1.408       .  A
C1011      N1017   1.346       .  A
C1012      C1013   1.405       .  A
C1012      H1023   1.082       .  S
C1013      C1022   1.383       .  A
C1013      C1014   1.383       .  A
C1014      C1015   1.407       .  A
C1014      N1020   1.347       .  A
C1015      C1016   1.408       .  A
C1015      H1024   1.082       .  S
C1016      C1019   1.382       .  A
N1017      C1018   1.358       .  A
N1017      H1027   1.045       .  S
C1018      C1019   1.400       .  A
C1019      H1025   1.083       .  S
N1020      C1021   1.358       .  A
N1020      H1028   1.045       .  S
C1021      C1022   1.397       .  A
C1022      H1026   1.082       .  S
C1029      C1034   1.384       .  A
C1029      C1030   1.405       .  A
C1029      N1035   1.342       .  A
C1030      C1031   1.403       .  A
C1030      H1041   1.082   1_565  S
C1031      C1040   1.382   1_565  A
C1031      C1032   1.384       .  A
C1032      C1033   1.406       .  A
C1032      N1038   1.343       .  A
C1033      C1034   1.404       .  A
C1033      H1042   1.082       .  S
C1034      C1037   1.383       .  A
N1035      C1036   1.357       .  A
N1035      H1045   1.045       .  S
C1036      C1037   1.396       .  A
C1037      H1043   1.082       .  S
N1038      C1039   1.357       .  A
N1038      H1046   1.045       .  S
C1039      C1040   1.395   1_565  A
C1040      H1044   1.082       .  S
C1047      C1052   1.385       .  A
C1047      C1048   1.398       .  A
C1047      N1053   1.339       .  A
C1048      C1049   1.397       .  A
C1048      H1059   1.083       .  S
C1049      C1058   1.369       .  A
C1049      C1050   1.384       .  A
C1050      C1051   1.406       .  A
C1050      N1056   1.347       .  A
C1051      C1052   1.406       .  A
C1051      H1060   1.082       .  S
C1052      C1055   1.381       .  A
N1053      C1054   1.354       .  A
N1053      H1063   1.045       .  S
C1054      C1055   1.398       .  A
C1055      H1061   1.082   1_565  S
N1056      C1057   1.357       .  A
N1056      H1064   1.045       .  S
C1057      C1058   1.394       .  A
C1058      H1062   1.083       .  S
C1065      C1070   1.384       .  A
C1065      C1066   1.400       .  A
C1065      N1071   1.339       .  A
C1066      C1067   1.398       .  A
C1066      H1077   1.083       .  S
C1067      C1076   1.372       .  A
C1067      C1068   1.384       .  A
C1068      C1069   1.409       .  A
C1068      N1074   1.349       .  A
C1069      C1070   1.409       .  A
C1069      H1078   1.082       .  S
C1070      C1073   1.386       .  A
N1071      C1072   1.356       .  A
N1071      H1081   1.045       .  S
C1072      C1073   1.399       .  A
C1073      H1079   1.082       .  S
N1074      C1075   1.359       .  A
N1074      H1082   1.044       .  S
C1075      C1076   1.394       .  A
C1076      H1080   1.083       .  S
C1083      C1088   1.383       .  A
C1083      C1084   1.408       .  A
C1083      N1089   1.348       .  A
C1084      C1085   1.408       .  A
C1084      H1095   1.082       .  S
C1085      C1094   1.384       .  A
C1085      C1086   1.383       .  A
C1086      C1087   1.405       .  A
C1086      N1092   1.343       .  A
C1087      C1088   1.402       .  A
C1087      H1096   1.082       .  S
C1088      C1091   1.379       .  A
N1089      C1090   1.358       .  A
N1089      H1099   1.045       .  S
C1090      C1091   1.395       .  A
C1091      H1097   1.083       .  S
N1092      C1093   1.357       .  A
N1092      H1100   1.045       .  S
C1093      C1094   1.400       .  A
C1094      H1098   1.083   1_455  S
C1101      C1106   1.383       .  A
C1101      C1102   1.407       .  A
C1101      N1107   1.347       .  A
C1102      C1103   1.406       .  A
C1102      H1113   1.082       .  S
C1103      C1112   1.382       .  A
C1103      C1104   1.383       .  A
C1104      C1105   1.403       .  A
C1104      N1110   1.344       .  A
C1105      C1106   1.404       .  A
C1105      H1114   1.083       .  S
C1106      C1109   1.377       .  A
N1107      C1108   1.358       .  A
N1107      H1117   1.045       .  S
C1108      C1109   1.398       .  A
C1109      H1115   1.083       .  S
N1110      C1111   1.356       .  A
N1110      H1118   1.045       .  S
C1111      C1112   1.397       .  A
C1112      H1116   1.082       .  S
C1119      C1124   1.384       .  A
C1119      C1120   1.405       .  A
C1119      N1125   1.339       .  A
C1120      C1121   1.401       .  A
C1120      H1131   1.082       .  S
C1121      C1130   1.383       .  A
C1121      C1122   1.384       .  A
C1122      C1123   1.404       .  A
C1122      N1128   1.339       .  A
C1123      C1124   1.401       .  A
C1123      H1132   1.082       .  S
C1124      C1127   1.383       .  A
N1125      C1126   1.356       .  A
N1125      H1135   1.045       .  S
C1126      C1127   1.394       .  A
C1127      H1133   1.082       .  S
N1128      C1129   1.356       .  A
N1128      H1136   1.045       .  S
C1129      C1130   1.395       .  A
C1130      H1134   1.082       .  S
C1137      C1142   1.384       .  A
C1137      C1138   1.410   1_554  A
C1137      N1143   1.349       .  A
C1138      C1139   1.409       .  A
C1138      H1149   1.082       .  S
C1139      C1148   1.386       .  A
C1139      C1140   1.384       .  A
C1140      C1141   1.400   1_556  A
C1140      N1146   1.340       .  A
C1141      C1142   1.399       .  A
C1141      H1150   1.083       .  S
C1142      C1145   1.373       .  A
N1143      C1144   1.359       .  A
N1143      H1153   1.044       .  S
C1144      C1145   1.395       .  A
C1145      H1151   1.083       .  S
N1146      C1147   1.355       .  A
N1146      H1154   1.045       .  S
C1147      C1148   1.400       .  A
C1148      H1152   1.082       .  S
C1155      C1160   1.384       .  A
C1155      C1156   1.409       .  A
C1155      N1161   1.348       .  A
C1156      C1157   1.408       .  A
C1156      H1167   1.082       .  S
C1157      C1166   1.386       .  A
C1157      C1158   1.384       .  A
C1158      C1159   1.400       .  A
C1158      N1164   1.339       .  A
C1159      C1160   1.398       .  A
C1159      H1168   1.083       .  S
C1160      C1163   1.373   1_554  A
N1161      C1162   1.358   1_554  A
N1161      H1171   1.044       .  S
C1162      C1163   1.394       .  A
C1163      H1169   1.083       .  S
N1164      C1165   1.354       .  A
N1164      H1172   1.045       .  S
C1165      C1166   1.399       .  A
C1166      H1170   1.082       .  S
C1173      C1178   1.383       .  A
C1173      C1174   1.407       .  A
C1173      N1179   1.349       .  A
C1174      C1175   1.408       .  A
C1174      H1185   1.082       .  S
C1175      C1184   1.380       .  A
C1175      C1176   1.382       .  A
C1176      C1177   1.408       .  A
C1176      N1182   1.349       .  A
C1177      C1178   1.407       .  A
C1177      H1186   1.082       .  S
C1178      C1181   1.382       .  A
N1179      C1180   1.358       .  A
N1179      H1189   1.045       .  S
C1180      C1181   1.399       .  A
C1181      H1187   1.082       .  S
N1182      C1183   1.359       .  A
N1182      H1190   1.045   1_655  S
C1183      C1184   1.400       .  A
C1184      H1188   1.083       .  S
C1191      C1196   1.383       .  A
C1191      C1192   1.407       .  A
C1191      N1197   1.346       .  A
C1192      C1193   1.405       .  A
C1192      H1203   1.082       .  S
C1193      C1202   1.381       .  A
C1193      C1194   1.383       .  A
C1194      C1195   1.406       .  A
C1194      N1200   1.348       .  A
C1195      C1196   1.407       .  A
C1195      H1204   1.082       .  S
C1196      C1199   1.381       .  A
N1197      C1198   1.359       .  A
N1197      H1207   1.045       .  S
C1198      C1199   1.399       .  A
C1199      H1205   1.083       .  S
N1200      C1201   1.357       .  A
N1200      H1208   1.045       .  S
C1201      C1202   1.397       .  A
C1202      H1206   1.082       .  S
C1209      C1214   1.384       .  A
C1209      C1210   1.404       .  A
C1209      N1215   1.340       .  A
C1210      C1211   1.401       .  A
C1210      H1221   1.082       .  S
C1211      C1220   1.382       .  A
C1211      C1212   1.384       .  A
C1212      C1213   1.405       .  A
C1212      N1218   1.340       .  A
C1213      C1214   1.402       .  A
C1213      H1222   1.082       .  S
C1214      C1217   1.382       .  A
N1215      C1216   1.356       .  A
N1215      H1225   1.045       .  S
C1216      C1217   1.395       .  A
C1217      H1223   1.082       .  S
N1218      C1219   1.356       .  A
N1218      H1226   1.045       .  S
C1219      C1220   1.394       .  A
C1220      H1224   1.082       .  S
C1227      C1232   1.385       .  A
C1227      C1228   1.405       .  A
C1227      N1233   1.348       .  A
C1228      C1229   1.406       .  A
C1228      H1239   1.082       .  S
C1229      C1238   1.377       .  A
C1229      C1230   1.385       .  A
C1230      C1231   1.403       .  A
C1230      N1236   1.347       .  A
C1231      C1232   1.404       .  A
C1231      H1240   1.082       .  S
C1232      C1235   1.375       .  A
N1233      C1234   1.356       .  A
N1233      H1243   1.045       .  S
C1234      C1235   1.396       .  A
C1235      H1241   1.083       .  S
N1236      C1237   1.355       .  A
N1236      H1244   1.045       .  S
C1237      C1238   1.397       .  A
C1238      H1242   1.083       .  S
C1245      C1250   1.384       .  A
C1245      C1246   1.399       .  A
C1245      N1251   1.340       .  A
C1246      C1247   1.398       .  A
C1246      H1257   1.083       .  S
C1247      C1256   1.372       .  A
C1247      C1248   1.384       .  A
C1248      C1249   1.410       .  A
C1248      N1254   1.349       .  A
C1249      C1250   1.409       .  A
C1249      H1258   1.082       .  S
C1250      C1253   1.385       .  A
N1251      C1252   1.355       .  A
N1251      H1261   1.045       .  S
C1252      C1253   1.400       .  A
C1253      H1259   1.082       .  S
N1254      C1255   1.359       .  A
N1254      H1262   1.045       .  S
C1255      C1256   1.394       .  A
C1256      H1260   1.083       .  S
C1263      C1268   1.384       .  A
C1263      C1264   1.401       .  A
C1263      N1269   1.340       .  A
C1264      C1265   1.399       .  A
C1264      H1275   1.083       .  S
C1265      C1274   1.374       .  A
C1265      C1266   1.383       .  A
C1266      C1267   1.410       .  A
C1266      N1272   1.349       .  A
C1267      C1268   1.410       .  A
C1267      H1276   1.082       .  S
C1268      C1271   1.388       .  A
N1269      C1270   1.356       .  A
N1269      H1279   1.045       .  S
C1270      C1271   1.400       .  A
C1271      H1277   1.082       .  S
N1272      C1273   1.359       .  A
N1272      H1280   1.044       .  S
C1273      C1274   1.396       .  A
C1274      H1278   1.083       .  S
