geometry optimzed in LAMMPS
_audit_creation_date              2020-12-01 
_audit_creation_method            'lammps2cif' 
_symmetry_space_group_name_H-M    'P1' 
_symmetry_Int_Tables_number       1 
_symmetry_cell_setting            triclinic 
loop_ 
_symmetry_equiv_pos_as_xyz 
  x,y,z 
_cell_length_a                    48.37679052 
_cell_length_b                    48.39309109674235 
_cell_length_c                    47.888959637508975 
_cell_angle_alpha                 89.99529368810768 
_cell_angle_beta                  90.00044687850328 
_cell_angle_gamma                 120.18195226696409 
loop_ 
_atom_site_label 
_atom_site_type_symbol 
_atom_site_fract_x 
_atom_site_fract_y 
_atom_site_fract_z 
_atom_site_charge 
Fe1        Fe  0.44092541  0.10814741  0.11535087     1.65800
Fe2        Fe  0.38366199  0.10260028  0.07125837     1.73200
Fe3        Fe  0.40490018  0.15121521  0.12797882     1.54400
O4          O  0.41101344  0.13164530  0.16432755    -0.79300
O5          O  0.39413092  0.14701196  0.05602629    -0.77700
O6          O  0.41892134  0.09124716  0.15299751    -0.81900
O7          O  0.47102872  0.15121850  0.13500418    -0.76700
O8          O  0.35703229  0.12105067  0.13212191    -0.78500
O9          O  0.42371570  0.10810072  0.04809401    -0.81200
C10         C  0.47226196  0.17784155  0.13799288     0.99500
C11         C  0.41364626  0.10756054  0.17065080     1.07000
O12         O  0.40974536  0.12081659  0.10465017    -1.10200
O13         O  0.36954493  0.05647240  0.08439446    -0.72600
O14         O  0.41516959  0.06179857  0.09974149    -0.76100
O15         O  0.45253106  0.18396303  0.12651490    -0.76800
C16         C  0.38566688  0.04466427  0.09421024     0.98400
O17         O  0.46450422  0.12514020  0.07833002    -0.74800
O18         O  0.34168337  0.09605188  0.09096580    -0.80000
C19         C  0.39671986  0.17148685  0.06830785     1.01100
C20         C  0.33559165  0.10301697  0.11509229     1.07000
O21         O  0.39839640  0.17471263  0.09464983    -0.75600
C22         C  0.45359004  0.12034567  0.05362200     1.05300
Fe23       Fe  0.34239987  0.41022935  0.39159837     1.65800
Fe24       Fe  0.29044512  0.41491632  0.43604534     1.73200
Fe25       Fe  0.26301715  0.36658618  0.37912282     1.54400
O26         O  0.28859681  0.38638389  0.34275588    -0.79300
O27         O  0.25647016  0.37033150  0.45110398    -0.77700
O28         O  0.33705608  0.42696730  0.35397656    -0.81900
O29         O  0.32950887  0.36722418  0.37196931    -0.77900
O30         O  0.24513262  0.39648254  0.37525004    -0.78500
O31         O  0.32509398  0.40948114  0.45907162    -0.81200
C32         C  0.30409965  0.34048144  0.36895596     0.99500
C33         C  0.31533279  0.41058091  0.33638001     1.07000
O34         O  0.29838795  0.39708388  0.40246815    -1.10200
O35         O  0.32241618  0.46122463  0.42312881    -0.72600
O36         O  0.36285986  0.45658527  0.40713021    -0.76100
O37         O  0.27808782  0.33412747  0.38032940    -0.76800
C38         C  0.35029892  0.47338055  0.41298575     0.98400
O39         O  0.34933130  0.39340366  0.42855782    -0.74800
O40         O  0.25488330  0.42130693  0.41649495    -0.80000
C41         C  0.23455206  0.34585240  0.43875190     1.01100
C42         C  0.24174852  0.41437958  0.39238365     1.07000
O43         O  0.23300585  0.34275684  0.41240635    -0.75600
C44         C  0.34295623  0.39763444  0.45334429     1.05300
Fe45       Fe  0.40178146  0.35086390  0.28200952     1.65800
Fe46       Fe  0.40647715  0.29895110  0.23754568     1.73200
Fe47       Fe  0.35812520  0.27150744  0.29446460     1.54400
O48         O  0.37792775  0.29706934  0.33083878    -0.79300
O49         O  0.36187145  0.26502744  0.22246700    -0.77700
O50         O  0.41853202  0.34551262  0.31962096    -0.81900
O51         O  0.35876834  0.33797200  0.30165113    -0.76700
O52         O  0.38802334  0.25361997  0.29832377    -0.78500
O53         O  0.40110620  0.33364515  0.21454880    -0.81200
C54         C  0.33201331  0.31257382  0.30465676     0.99500
C55         C  0.40212589  0.32380079  0.33721896     1.07000
O56         O  0.38863440  0.30687409  0.27112809    -1.10200
O57         O  0.45279677  0.33088450  0.25048919    -0.72600
O58         O  0.44813664  0.37131876  0.26644832    -0.76100
O59         O  0.32565529  0.28657510  0.29327460    -0.76800
C60         C  0.46494631  0.35876969  0.26060402     0.98400
O61         O  0.38494807  0.35780425  0.24506577    -0.74800
O62         O  0.41280383  0.26333549  0.25705371    -0.80000
C63         C  0.33738981  0.24309510  0.23481444     1.01100
C64         C  0.40586931  0.25018832  0.28115971     1.07000
O65         O  0.33429777  0.24152458  0.26116305    -0.75600
C66         C  0.38924096  0.35148672  0.22028004     1.05300
Fe67       Fe  0.05929274  0.40921477  0.36525707     1.65800
Fe68       Fe  0.11671351  0.41477386  0.32133515     1.73200
Fe69       Fe  0.09518501  0.36603283  0.37799441     1.54400
O70         O  0.08900627  0.38557810  0.41430821    -0.79300
O71         O  0.10631396  0.37038275  0.30611070    -0.77700
O72         O  0.08115244  0.42601764  0.40298457    -0.81900
O73         O  0.02907441  0.36613366  0.38485550    -0.76700
O74         O  0.14306544  0.39610305  0.38226076    -0.78500
O75         O  0.07676146  0.40927352  0.29803130    -0.81200
C76         C  0.02783266  0.33950919  0.38786099     0.99500
C77         C  0.08638390  0.40966364  0.42063696     1.07000
O78         O  0.09049410  0.39652628  0.35465647    -1.10200
O79         O  0.13078127  0.46089704  0.33444256    -0.72600
O80         O  0.08513910  0.45559096  0.34971702    -0.76100
O81         O  0.04754468  0.33337541  0.37637261    -0.76800
C82         C  0.11465027  0.47271363  0.34421558     0.98400
O83         O  0.03586748  0.39229833  0.32815215    -0.74800
O84         O  0.15859504  0.42131537  0.34120216    -0.80000
C85         C  0.10356238  0.34583808  0.31838919     1.01100
C86         C  0.16457994  0.41424028  0.36532427     1.07000
O87         O  0.10172571  0.34253820  0.34471794    -0.75600
C88         C  0.04687226  0.39704840  0.30347337     1.05300
Fe89       Fe  0.15811945  0.10757444  0.14144718     1.65800
Fe90       Fe  0.20991282  0.10258945  0.18588170     1.73200
Fe91       Fe  0.23754116  0.15113354  0.12909329     1.54400
O92         O  0.21201628  0.13154340  0.09266119    -0.79300
O93         O  0.24392608  0.14709625  0.20106254    -0.77700
O94         O  0.16350920  0.09097992  0.10378820    -0.81900
O95         O  0.17115477  0.15070122  0.12196392    -0.76700
O96         O  0.25530301  0.12114546  0.12510935    -0.78500
O97         O  0.17527488  0.10802947  0.20893002    -0.81200
C98         C  0.19661874  0.17741300  0.11900658     0.99500
C99         C  0.18527047  0.10739213  0.08623372     1.07000
O100        O  0.20208734  0.12059017  0.15235479    -1.10200
O101        O  0.17788666  0.05634593  0.17286727    -0.72600
O102        O  0.13754338  0.06111415  0.15679190    -0.76100
O103        O  0.22257744  0.18366730  0.13042563    -0.76800
C104        C  0.15003480  0.04425730  0.16267301     0.98400
O105        O  0.15112339  0.12424983  0.17845663    -0.74800
O106        O  0.24542554  0.09614673  0.16628108    -0.80000
C107        C  0.26589658  0.17160418  0.18878061     1.01100
C108        C  0.25857289  0.10311376  0.14217205     1.07000
O109        O  0.26751810  0.17477969  0.16244215    -0.75600
C110        C  0.15743424  0.11991059  0.20323172     1.05300
Fe111      Fe  0.15816328  0.06736613  0.44871352     1.65800
Fe112      Fe  0.20993902  0.12469075  0.40451111     1.73200
Fe113      Fe  0.23754159  0.10351200  0.46103501     1.54400
O114        O  0.21197879  0.09721934  0.49750474    -0.79300
O115        O  0.24385242  0.11434398  0.38911223    -0.77700
O116        O  0.16352774  0.08923857  0.48643588    -0.81900
O117        O  0.17119084  0.03726878  0.46811231    -0.76700
O118        O  0.25537085  0.15134221  0.46527771    -0.78500
O119        O  0.17524288  0.08465050  0.38136454    -0.81200
C120        C  0.19665531  0.03611901  0.47090713     0.99500
C121        C  0.18526084  0.09454162  0.00397433     1.07000
O122        O  0.20211669  0.09861939  0.43788204    -1.10200
O123        O  0.17795065  0.13870636  0.41778187    -0.72600
O124        O  0.13755575  0.09316168  0.43343424    -0.76100
O125        O  0.22252832  0.05594115  0.45936758    -0.76800
C126        C  0.15001758  0.12263388  0.42779497     0.98400
O127        O  0.15133495  0.04388819  0.41161781    -0.74800
O128        O  0.24556394  0.16664348  0.42418946    -0.80000
C129        C  0.26582860  0.11184298  0.40129902     1.01100
C130        C  0.25874480  0.17275376  0.44827388     1.07000
O131        O  0.26749578  0.11019362  0.42762304    -0.75600
C132        C  0.15758401  0.05478263  0.38690600     1.05300
Fe133      Fe  0.05883571  0.16686105  0.22486984     1.65800
Fe134      Fe  0.11615183  0.21862453  0.26907025     1.73200
Fe135      Fe  0.09503094  0.24620998  0.21249321     1.54400
O136        O  0.08875355  0.22062922  0.17604619    -0.79300
O137        O  0.10580944  0.25254994  0.28443068    -0.77700
O138        O  0.08074209  0.17219671  0.18716750    -0.81900
O139        O  0.02875275  0.17988540  0.20543723    -0.76700
O140        O  0.14287744  0.26400232  0.20828699    -0.78500
O141        O  0.07607395  0.18393843  0.29221189    -0.81200
C142        C  0.02760538  0.20533736  0.20259335     0.99500
C143        C  0.08605977  0.19390676  0.16960682     1.07000
O144        O  0.09009399  0.21080337  0.23568645    -1.10200
O145        O  0.13018089  0.18664197  0.25581389    -0.72600
O146        O  0.08461827  0.14625494  0.24018842    -0.76100
O147        O  0.04744077  0.23122811  0.21409437    -0.76800
C148        C  0.11410589  0.15871788  0.24580204     0.98400
O149        O  0.03531681  0.16004590  0.26194644    -0.74800
O150        O  0.15813931  0.25422859  0.24940852    -0.80000
C151        C  0.10335222  0.27453420  0.27221749     1.01100
C152        C  0.16427794  0.26738322  0.22531357     1.07000
O153        O  0.10171081  0.27618031  0.24588841    -0.75600
C154        C  0.04619856  0.16627362  0.28666180     1.05300
Fe155      Fe  0.34220989  0.45007735  0.19874593     1.65800
Fe156      Fe  0.29039894  0.39271069  0.15457908     1.73200
Fe157      Fe  0.26283366  0.41388771  0.21111515     1.54400
O158        O  0.28845592  0.42032289  0.24758801    -0.79300
O159        O  0.25646399  0.40304136  0.13919437    -0.77700
O160        O  0.33690464  0.42830937  0.23652264    -0.81900
O161        O  0.32915956  0.48018491  0.21807887    -0.76700
O162        O  0.24509196  0.36608025  0.21543343    -0.78500
O163        O  0.32506069  0.43273408  0.13139185    -0.81200
C164        C  0.30366638  0.48127929  0.22088646     0.99500
C165        C  0.31521018  0.42309446  0.25407527     1.07000
O166        O  0.29825141  0.41878977  0.18794702    -1.10200
O167        O  0.32242175  0.37872191  0.16781486    -0.72600
O168        O  0.36280376  0.42424895  0.18352506    -0.76100
O169        O  0.27780649  0.46143992  0.20934081    -0.76800
C170        C  0.35035178  0.39478935  0.17783747     0.98400
O171        O  0.34902625  0.47350255  0.16162191    -0.74800
O172        O  0.25479202  0.35076911  0.17430284    -0.80000
C173        C  0.23445307  0.40547174  0.15139161     1.01100
C174        C  0.24166682  0.34466462  0.19841406     1.07000
O175        O  0.23278821  0.40708207  0.17772214    -0.75600
C176        C  0.34274413  0.46260060  0.13691739     1.05300
Fe177      Fe  0.09900152  0.16667652  0.03213802     1.65800
Fe178      Fe  0.09400087  0.21846847  0.48773650     1.73200
Fe179      Fe  0.14261526  0.24605888  0.04448323     1.54400
O180        O  0.12303057  0.22054094  0.08091817    -0.79300
O181        O  0.13851631  0.25243439  0.47252199    -0.77700
O182        O  0.08241368  0.17206725  0.06980440    -0.81900
O183        O  0.14213576  0.17968063  0.05161881    -0.76700
O184        O  0.11265420  0.26385382  0.04850655    -0.78500
O185        O  0.09937041  0.18381065  0.46467846    -0.81200
C186        C  0.16886708  0.20512734  0.05455095     0.99500
C187        C  0.09885712  0.19381608  0.08735425     1.07000
O188        O  0.11202606  0.21063140  0.02124028    -1.10200
O189        O  0.04775319  0.18647413  0.50077907    -0.72600
O190        O  0.05253830  0.14612446  0.01678191    -0.76100
O191        O  0.17513081  0.23106597  0.04310424    -0.76800
C192        C  0.03566884  0.15860839  0.01092182     0.98400
O193        O  0.11567142  0.15970144  0.49512024    -0.74800
O194        O  0.08762279  0.25400363  0.50735113    -0.80000
C195        C  0.16304793  0.27438796  0.48478885     1.01100
C196        C  0.09462629  0.26715269  0.03145569     1.07000
O197        O  0.16624820  0.27601359  0.01112406    -0.75600
C198        C  0.11127088  0.16598506  0.47035491     1.05300
Fe199      Fe  0.09964416  0.44945758  0.05821023     1.65800
Fe200      Fe  0.09425355  0.39229801  0.10233698     1.73200
Fe201      Fe  0.14277870  0.41349369  0.04554036     1.54400
O202        O  0.12318903  0.41960229  0.00920687    -0.79300
O203        O  0.13872704  0.40283644  0.11750257    -0.77700
O204        O  0.08276605  0.42747630  0.02055264    -0.81900
O205        O  0.14272649  0.47959309  0.03857517    -0.76700
O206        O  0.11259499  0.36563859  0.04142405    -0.78500
O207        O  0.09973461  0.43233661  0.12549793    -0.81200
C208        C  0.16935922  0.48083695  0.03553738     0.99500
C209        C  0.09910080  0.42223911  0.00288943     1.07000
O210        O  0.11239009  0.41833890  0.06890882    -1.10200
O211        O  0.04806603  0.37810156  0.08926440    -0.72600
O212        O  0.05327198  0.42362346  0.07379835    -0.76100
O213        O  0.17551924  0.46111489  0.04697429    -0.76800
C214        C  0.03619042  0.39413920  0.07939596     0.98400
O215        O  0.11660390  0.47305957  0.09522883    -0.74800
O216        O  0.08772735  0.35033411  0.08264635    -0.80000
C217        C  0.16316864  0.40537129  0.10518285     1.01100
C218        C  0.09462496  0.34422076  0.05849930     1.07000
O219        O  0.16633153  0.40699446  0.07883465    -0.75600
C220        C  0.11188415  0.46218545  0.11994778     1.05300
Fe221      Fe  0.40057369  0.06771300  0.30829080     1.65800
Fe222      Fe  0.40603204  0.12507266  0.35220667     1.73200
Fe223      Fe  0.35730229  0.10352005  0.29553270     1.54400
O224        O  0.37683740  0.09732571  0.25921983    -0.79300
O225        O  0.36160584  0.11463490  0.36740977    -0.77700
O226        O  0.41732948  0.08954305  0.27054439    -0.81900
O227        O  0.35746775  0.03745288  0.28874292    -0.76700
O228        O  0.38737582  0.15138702  0.29123472    -0.78500
O229        O  0.40056690  0.08515285  0.37553175    -0.81200
C230        C  0.33082767  0.03619548  0.28572622     0.99500
C231        C  0.40095106  0.09474150  0.25289147     1.07000
O232        O  0.38782070  0.09886155  0.31888374    -1.10200
O233        O  0.45219198  0.13919527  0.33912629    -0.72600
O234        O  0.44698550  0.09363667  0.32377436    -0.76100
O235        O  0.32466684  0.05589131  0.29719872    -0.76800
C236        C  0.46406532  0.12313328  0.32931774     0.98400
O237        O  0.38371801  0.04429421  0.34541123    -0.74800
O238        O  0.41254877  0.16691905  0.33231203    -0.80000
C239        C  0.33707326  0.11190962  0.35511697     1.01100
C240        C  0.40550493  0.17289832  0.30817352     1.07000
O241        O  0.33379303  0.11008212  0.32878825    -0.75600
C242        C  0.38842866  0.05528436  0.37009069     1.05300
Fe243      Fe  0.44153322  0.35060038  0.47488151     1.65800
Fe244      Fe  0.38416003  0.29874029  0.01902944     1.73200
Fe245      Fe  0.40533019  0.27126417  0.46242195     1.54400
O246        O  0.41176394  0.29692381  0.42598682    -0.79300
O247        O  0.39449645  0.26479203  0.03434769    -0.77700
O248        O  0.41976954  0.34534710  0.43710382    -0.81900
O249        O  0.47166328  0.33759314  0.45552310    -0.76700
O250        O  0.35750319  0.25354288  0.45813287    -0.78500
O251        O  0.42420044  0.33336523  0.04223631    -0.81200
C252        C  0.47276678  0.31212048  0.45265115     0.99500
C253        C  0.41455403  0.32368208  0.41952819     1.07000
O254        O  0.41024571  0.30663797  0.48564628    -1.10200
O255        O  0.37014832  0.33076200  0.00584135    -0.72600
O256        O  0.41567947  0.37115310  0.49013589    -0.76100
O257        O  0.45290663  0.28622484  0.46413607    -0.76800
C258        C  0.38620638  0.35868718  0.99581792     0.98400
O259        O  0.46497192  0.35738497  0.01200139    -0.74800
O260        O  0.34220158  0.26316600  0.99930184    -0.80000
C261        C  0.39690512  0.24279580  0.02211043     1.01100
C262        C  0.33608585  0.25008526  0.47517552     1.07000
O263        O  0.39851940  0.24117614  0.99577549    -0.75600
C264        C  0.45407460  0.35107307  0.03670873     1.05300
C265        C  0.00268199  0.37788381  0.07164849    -0.10900
C266        C  0.47761065  0.36474634  0.05884130    -0.12500
C267        C  0.08405306  0.31190594  0.04985388    -0.10900
C268        C  0.08406678  0.28885659  0.04008747    -0.12500
C269        C  0.20987618  0.40614299  0.13483742    -0.10900
C270        C  0.18853299  0.40612492  0.12162618    -0.12500
C271        C  0.30333816  0.50145721  0.24241975    -0.10900
C272        C  0.31049225  0.01600748  0.26405738    -0.12500
C273        C  0.21980926  0.31233976  0.20704078    -0.10900
C274        C  0.19663020  0.28920159  0.21670662    -0.12500
C275        C  0.08815230  0.18819736  0.14087542    -0.10900
C276        C  0.09096034  0.18815782  0.11607866    -0.12500
C277        C  0.02264933  0.15254531  0.30877765    -0.10900
C278        C  0.49757192  0.13937907  0.32157427    -0.12500
C279        C  0.28058766  0.20508530  0.45689190    -0.10900
C280        C  0.30374545  0.22824345  0.46655607    -0.12500
C281        C  0.29037875  0.11114775  0.38474600    -0.10900
C282        C  0.31172832  0.11116474  0.37156096    -0.12500
C283        C  0.12103162  0.15212357  0.44834101    -0.10900
C284        C  0.13283150  0.13886631  0.43560928    -0.12500
C285        C  0.19692384  0.01582228  0.49236411    -0.10900
C286        C  0.18973485  0.50113159  0.01393284    -0.12500
C287        C  0.13303355  0.01075881  0.15486789    -0.10900
C288        C  0.12144996  0.48570840  0.14205829    -0.12500
C289        C  0.17959292  0.09664945  0.03271578    -0.10900
C290        C  0.17959523  0.09948246  0.05751159    -0.12500
C291        C  0.19672043  0.19787534  0.09753790    -0.10900
C292        C  0.18933859  0.20524177  0.07602245    -0.12500
C293        C  0.14358936  0.12972261  0.22523039    -0.10900
C294        C  0.13034548  0.14154004  0.23796448    -0.12500
C295        C  0.10278072  0.32049352  0.30192943    -0.10900
C296        C  0.10271062  0.29912148  0.28874625    -0.12500
C297        C  0.00761538  0.31913345  0.40950539    -0.10900
C298        C  0.49300963  0.31188728  0.43112104    -0.12500
C299        C  0.13082108  0.50620089  0.35196777    -0.10900
C300        C  0.14391140  0.03125683  0.36477936    -0.12500
C301        C  0.09120970  0.42022991  0.47417286    -0.10900
C302        C  0.08843778  0.41752959  0.44935991    -0.12500
C303        C  0.41626556  0.22831824  0.28966134    -0.10900
C304        C  0.41613944  0.20518645  0.29939777    -0.12500
C305        C  0.31190935  0.21845784  0.21840603    -0.10900
C306        C  0.29050239  0.19703773  0.20524935    -0.12500
C307        C  0.02345698  0.38741364  0.28126904    -0.10900
C308        C  0.49844845  0.37576037  0.26838987    -0.12500
C309        C  0.41004025  0.32952439  0.36594508    -0.10900
C310        C  0.41270509  0.32947729  0.39076353    -0.12500
C311        C  0.37939749  0.36532364  0.19830767    -0.10900
C312        C  0.36755424  0.37856088  0.18560875    -0.12500
C313        C  0.19687220  0.42482876  0.37408353    -0.10900
C314        C  0.21995940  0.42486646  0.38383784    -0.12500
C315        C  0.20990433  0.32037590  0.45515206    -0.10900
C316        C  0.18848026  0.29897430  0.46830752    -0.12500
C317        C  0.31157149  0.31261121  0.32608185    -0.10900
C318        C  0.30413838  0.32004890  0.34753022    -0.12500
C319        C  0.35674665  0.38773654  0.47532274    -0.10900
C320        C  0.36995946  0.37587241  0.48803505    -0.12500
C321        C  0.36725875  0.50687204  0.40517789    -0.10900
C322        C  0.37885283  0.03187229  0.39229474    -0.12500
C323        C  0.32103822  0.41852658  0.30765789    -0.10900
C324        C  0.32097294  0.42121863  0.28284423    -0.12500
C325        C  0.30327470  0.09245220  0.12376388    -0.10900
C326        C  0.28024088  0.09250177  0.13354483    -0.12500
C327        C  0.39753968  0.21818240  0.03862376    -0.10900
C328        C  0.39748806  0.19682578  0.05183014    -0.12500
C329        C  0.00215668  0.14156947  0.01869184    -0.10900
C330        C  0.47709653  0.12993853  0.03149563    -0.12500
C331        C  0.49256115  0.19826961  0.15957111    -0.10900
C332        C  0.00727851  0.20554571  0.18112855    -0.12500
C333        C  0.36949609  0.01117832  0.10196862    -0.10900
C334        C  0.35640584  0.48612009  0.11478219    -0.12500
C335        C  0.41158325  0.09964143  0.19936333    -0.10900
C336        C  0.40883850  0.09682610  0.22417102    -0.12500
Fe337      Fe  0.44092534  0.10814735  0.61535087     1.65800
Fe338      Fe  0.38366202  0.10260031  0.57125835     1.73200
Fe339      Fe  0.40490015  0.15121513  0.62797886     1.54400
O340        O  0.41101340  0.13164520  0.66432754    -0.79300
O341        O  0.39413105  0.14701216  0.55602627    -0.77700
O342        O  0.41892117  0.09124698  0.65299746    -0.81900
O343        O  0.47102860  0.15121840  0.63500426    -0.76700
O344        O  0.35703219  0.12105056  0.63212200    -0.78500
O345        O  0.42371564  0.10810066  0.54809405    -0.81200
C346        C  0.47226195  0.17784149  0.63799301     0.99500
C347        C  0.41364612  0.10756038  0.67065081     1.07000
O348        O  0.40974531  0.12081654  0.60465017    -1.10200
O349        O  0.36954485  0.05647243  0.58439448    -0.72600
O350        O  0.41516955  0.06179854  0.59974136    -0.76100
O351        O  0.45253099  0.18396298  0.62651489    -0.76800
C352        C  0.38566682  0.04466428  0.59421022     0.98400
O353        O  0.46450419  0.12514022  0.57833006    -0.74800
O354        O  0.34168334  0.09605200  0.59096580    -0.80000
C355        C  0.39671987  0.17148663  0.56830807     1.01100
C356        C  0.33559176  0.10301701  0.61509217     1.07000
O357        O  0.39839631  0.17471266  0.59464978    -0.75600
C358        C  0.45359014  0.12034570  0.55362203     1.05300
Fe359      Fe  0.34239995  0.41022941  0.89159839     1.65800
Fe360      Fe  0.29044523  0.41491644  0.93604531     1.73200
Fe361      Fe  0.26301722  0.36658617  0.87912286     1.54400
O362        O  0.28859694  0.38638392  0.84275592    -0.79300
O363        O  0.25647028  0.37033175  0.95110392    -0.77700
O364        O  0.33705622  0.42696740  0.85397658    -0.81900
O365        O  0.32950901  0.36722427  0.87196929    -0.77900
O366        O  0.24513263  0.39648255  0.87525000    -0.78500
O367        O  0.32509396  0.40948121  0.95907162    -0.81200
C368        C  0.30409979  0.34048155  0.86895598     0.99500
C369        C  0.31533291  0.41058099  0.83638004     1.07000
O370        O  0.29838802  0.39708394  0.90246815    -1.10200
O371        O  0.32241625  0.46122468  0.92312876    -0.72600
O372        O  0.36285997  0.45658527  0.90713027    -0.76100
O373        O  0.27808799  0.33412755  0.88032948    -0.76800
C374        C  0.35029913  0.47338076  0.91298570     0.98400
O375        O  0.34933131  0.39340370  0.92855785    -0.74800
O376        O  0.25488336  0.42130706  0.91649480    -0.80000
C377        C  0.23455196  0.34585233  0.93875210     1.01100
C378        C  0.24174873  0.41437960  0.89238363     1.07000
O379        O  0.23300603  0.34275695  0.91240630    -0.75600
C380        C  0.34295633  0.39763444  0.95334434     1.05300
Fe381      Fe  0.40178150  0.35086387  0.78200957     1.65800
Fe382      Fe  0.40647718  0.29895109  0.73754565     1.73200
Fe383      Fe  0.35812527  0.27150739  0.79446461     1.54400
O384        O  0.37792785  0.29706925  0.83083884    -0.79300
O385        O  0.36187156  0.26502748  0.72246704    -0.77700
O386        O  0.41853206  0.34551253  0.81962099    -0.81900
O387        O  0.35876835  0.33797191  0.80165118    -0.76700
O388        O  0.38802343  0.25361987  0.79832375    -0.78500
O389        O  0.40110620  0.33364513  0.71454882    -0.81200
C390        C  0.33201334  0.31257372  0.80465682     0.99500
C391        C  0.40212593  0.32380067  0.83721897     1.07000
O392        O  0.38863448  0.30687407  0.77112810    -1.10200
O393        O  0.45279675  0.33088445  0.75048912    -0.72600
O394        O  0.44813665  0.37131874  0.76644839    -0.76100
O395        O  0.32565530  0.28657499  0.79327474    -0.76800
C396        C  0.46494647  0.35876976  0.76060406     0.98400
O397        O  0.38494813  0.35780427  0.74506581    -0.74800
O398        O  0.41280392  0.26333551  0.75705370    -0.80000
C399        C  0.33738969  0.24309494  0.73481439     1.01100
C400        C  0.40586942  0.25018837  0.78115965     1.07000
O401        O  0.33429783  0.24152453  0.76116308    -0.75600
C402        C  0.38924101  0.35148676  0.72028009     1.05300
Fe403      Fe  0.05929267  0.40921480  0.86525708     1.65800
Fe404      Fe  0.11671348  0.41477391  0.82133518     1.73200
Fe405      Fe  0.09518506  0.36603297  0.87799449     1.54400
O406        O  0.08900631  0.38557824  0.91430828    -0.79300
O407        O  0.10631388  0.37038271  0.80611074    -0.77700
O408        O  0.08115228  0.42601765  0.90298458    -0.81900
O409        O  0.02907436  0.36613367  0.88485551    -0.76700
O410        O  0.14306552  0.39610321  0.88226088    -0.78500
O411        O  0.07676140  0.40927353  0.79803131    -0.81200
C412        C  0.02783267  0.33950925  0.88786109     0.99500
C413        C  0.08638383  0.40966373  0.92063698     1.07000
O414        O  0.09049408  0.39652633  0.85465650    -1.10200
O415        O  0.13078120  0.46089691  0.83444250    -0.72600
O416        O  0.08513895  0.45559084  0.84971703    -0.76100
O417        O  0.04754475  0.33337550  0.87637273    -0.76800
C418        C  0.11465033  0.47271402  0.84421571     0.98400
O419        O  0.03586744  0.39229836  0.82815220    -0.74800
O420        O  0.15859508  0.42131539  0.84120227    -0.80000
C421        C  0.10356238  0.34583824  0.81838940     1.01100
C422        C  0.16457981  0.41424034  0.86532417     1.07000
O423        O  0.10172574  0.34253823  0.84471797    -0.75600
C424        C  0.04687222  0.39704841  0.80347341     1.05300
Fe425      Fe  0.15811947  0.10757453  0.64144714     1.65800
Fe426      Fe  0.20991280  0.10258948  0.68588162     1.73200
Fe427      Fe  0.23754117  0.15113361  0.62909323     1.54400
O428        O  0.21201624  0.13154345  0.59266111    -0.79300
O429        O  0.24392606  0.14709629  0.70106242    -0.77700
O430        O  0.16350917  0.09097998  0.60378812    -0.81900
O431        O  0.17115479  0.15070132  0.62196384    -0.76700
O432        O  0.25530302  0.12114552  0.62510917    -0.78500
O433        O  0.17527493  0.10802948  0.70892989    -0.81200
C434        C  0.19661871  0.17741306  0.61900648     0.99500
C435        C  0.18527038  0.10739216  0.58623369     1.07000
O436        O  0.20208737  0.12059023  0.65235472    -1.10200
O437        O  0.17788673  0.05634603  0.67286712    -0.72600
O438        O  0.13754338  0.06111423  0.65679191    -0.76100
O439        O  0.22257747  0.18366737  0.63042561    -0.76800
C440        C  0.15003471  0.04425733  0.66267287     0.98400
O441        O  0.15112343  0.12424994  0.67845660    -0.74800
O442        O  0.24542559  0.09614681  0.66628088    -0.80000
C443        C  0.26589670  0.17160433  0.68878064     1.01100
C444        C  0.25857275  0.10311384  0.64217200     1.07000
O445        O  0.26751811  0.17477975  0.66244198    -0.75600
C446        C  0.15743423  0.11991071  0.70323164     1.05300
Fe447      Fe  0.15816326  0.06736612  0.94871358     1.65800
Fe448      Fe  0.20993904  0.12469073  0.90451120     1.73200
Fe449      Fe  0.23754155  0.10351189  0.96103502     1.54400
O450        O  0.21197876  0.09721922  0.99750478    -0.79300
O451        O  0.24385254  0.11434392  0.88911229    -0.77700
O452        O  0.16352777  0.08923861  0.98643592    -0.81900
O453        O  0.17119077  0.03726874  0.96811237    -0.76700
O454        O  0.25537089  0.15134210  0.96527777    -0.78500
O455        O  0.17524296  0.08465062  0.88136463    -0.81200
C456        C  0.19665527  0.03611897  0.97090709     0.99500
C457        C  0.18526078  0.09454166  0.50397422     1.07000
O458        O  0.20211668  0.09861931  0.93788207    -1.10200
O459        O  0.17795071  0.13870635  0.91778195    -0.72600
O460        O  0.13755579  0.09316170  0.93343432    -0.76100
O461        O  0.22252820  0.05594099  0.95936756    -0.76800
C462        C  0.15001758  0.12263394  0.92779502     0.98400
O463        O  0.15133498  0.04388827  0.91161784    -0.74800
O464        O  0.24556396  0.16664344  0.92418956    -0.80000
C465        C  0.26582839  0.11184292  0.90129915     1.01100
C466        C  0.25874489  0.17275375  0.94827404     1.07000
O467        O  0.26749582  0.11019351  0.92762306    -0.75600
C468        C  0.15758394  0.05478251  0.88690603     1.05300
Fe469      Fe  0.05883578  0.16686111  0.72486987     1.65800
Fe470      Fe  0.11615192  0.21862457  0.76907028     1.73200
Fe471      Fe  0.09503096  0.24621004  0.71249325     1.54400
O472        O  0.08875364  0.22062929  0.67604618    -0.79300
O473        O  0.10580964  0.25255015  0.78443071    -0.77700
O474        O  0.08074222  0.17219681  0.68716751    -0.81900
O475        O  0.02875283  0.17988545  0.70543725    -0.76700
O476        O  0.14287752  0.26400247  0.70828702    -0.78500
O477        O  0.07607414  0.18393858  0.79221192    -0.81200
C478        C  0.02760536  0.20533732  0.70259333     0.99500
C479        C  0.08605987  0.19390684  0.66960693     1.07000
O480        O  0.09009408  0.21080343  0.73568647    -1.10200
O481        O  0.13018100  0.18664208  0.75581392    -0.72600
O482        O  0.08461837  0.14625504  0.74018847    -0.76100
O483        O  0.04744080  0.23122816  0.71409439    -0.76800
C484        C  0.11410601  0.15871793  0.74580203     0.98400
O485        O  0.03531696  0.16004598  0.76194647    -0.74800
O486        O  0.15813945  0.25422864  0.74940850    -0.80000
C487        C  0.10335228  0.27453410  0.77221750     1.01100
C488        C  0.16427793  0.26738320  0.72531360     1.07000
O489        O  0.10171079  0.27618040  0.74588849    -0.75600
C490        C  0.04619857  0.16627364  0.78666190     1.05300
Fe491      Fe  0.34220988  0.45007739  0.69874593     1.65800
Fe492      Fe  0.29039904  0.39271072  0.65457908     1.73200
Fe493      Fe  0.26283364  0.41388762  0.71111516     1.54400
O494        O  0.28845589  0.42032281  0.74758801    -0.79300
O495        O  0.25646393  0.40304128  0.63919435    -0.77700
O496        O  0.33690470  0.42830950  0.73652267    -0.81900
O497        O  0.32915951  0.48018495  0.71807888    -0.76700
O498        O  0.24509204  0.36608011  0.71543337    -0.78500
O499        O  0.32506073  0.43273411  0.63139184    -0.81200
C500        C  0.30366621  0.48127915  0.72088642     0.99500
C501        C  0.31521021  0.42309450  0.75407529     1.07000
O502        O  0.29825143  0.41878975  0.68794703    -1.10200
O503        O  0.32242187  0.37872198  0.66781486    -0.72600
O504        O  0.36280383  0.42424904  0.68352509    -0.76100
O505        O  0.27780642  0.46143984  0.70934092    -0.76800
C506        C  0.35035192  0.39478946  0.67783752     0.98400
O507        O  0.34902619  0.47350258  0.66162188    -0.74800
O508        O  0.25479215  0.35076908  0.67430279    -0.80000
C509        C  0.23445320  0.40547164  0.65139164     1.01100
C510        C  0.24166698  0.34466463  0.69841396     1.07000
O511        O  0.23278814  0.40708196  0.67772209    -0.75600
C512        C  0.34274412  0.46260066  0.63691737     1.05300
Fe513      Fe  0.09900153  0.16667646  0.53213800     1.65800
Fe514      Fe  0.09400095  0.21846856  0.98773645     1.73200
Fe515      Fe  0.14261534  0.24605882  0.54448317     1.54400
O516        O  0.12303069  0.22054089  0.58091815    -0.79300
O517        O  0.13851630  0.25243434  0.97252203    -0.77700
O518        O  0.08241375  0.17206719  0.56980446    -0.81900
O519        O  0.14213577  0.17968052  0.55161874    -0.76700
O520        O  0.11265431  0.26385375  0.54850655    -0.78500
O521        O  0.09937047  0.18381076  0.96467845    -0.81200
C522        C  0.16886712  0.20512723  0.55455085     0.99500
C523        C  0.09885724  0.19381603  0.58735418     1.07000
O524        O  0.11202608  0.21063135  0.52124028    -1.10200
O525        O  0.04775321  0.18647421  0.00077901    -0.72600
O526        O  0.05253828  0.14612438  0.51678195    -0.76100
O527        O  0.17513080  0.23106584  0.54310406    -0.76800
C528        C  0.03566875  0.15860826  0.51092189     0.98400
O529        O  0.11567146  0.15970156  0.99512029    -0.74800
O530        O  0.08762288  0.25400374  0.00735107    -0.80000
C531        C  0.16304824  0.27438830  0.98478882     1.01100
C532        C  0.09462630  0.26715266  0.53145581     1.07000
O533        O  0.16624825  0.27601351  0.51112394    -0.75600
C534        C  0.11127097  0.16598509  0.97035492     1.05300
Fe535      Fe  0.09964418  0.44945753  0.55821018     1.65800
Fe536      Fe  0.09425359  0.39229802  0.60233702     1.73200
Fe537      Fe  0.14277869  0.41349360  0.54554034     1.54400
O538        O  0.12318898  0.41960212  0.50920684    -0.79300
O539        O  0.13872717  0.40283650  0.61750263    -0.77700
O540        O  0.08276601  0.42747620  0.52055260    -0.81900
O541        O  0.14272650  0.47959302  0.53857508    -0.76700
O542        O  0.11259495  0.36563852  0.54142412    -0.78500
O543        O  0.09973461  0.43233664  0.62549789    -0.81200
C544        C  0.16935921  0.48083684  0.53553729     0.99500
C545        C  0.09910075  0.42223897  0.50288940     1.07000
O546        O  0.11239010  0.41833886  0.56890880    -1.10200
O547        O  0.04806602  0.37810155  0.58926440    -0.72600
O548        O  0.05327201  0.42362342  0.57379833    -0.76100
O549        O  0.17551925  0.46111479  0.54697419    -0.76800
C550        C  0.03619061  0.39413922  0.57939601     0.98400
O551        O  0.11660394  0.47305956  0.59522874    -0.74800
O552        O  0.08772739  0.35033406  0.58264648    -0.80000
C553        C  0.16316855  0.40537129  0.60518281     1.01100
C554        C  0.09462492  0.34422061  0.55849939     1.07000
O555        O  0.16633154  0.40699440  0.57883471    -0.75600
C556        C  0.11188422  0.46218555  0.61994777     1.05300
Fe557      Fe  0.40057366  0.06771296  0.80829080     1.65800
Fe558      Fe  0.40603201  0.12507262  0.85220667     1.73200
Fe559      Fe  0.35730227  0.10352002  0.79553271     1.54400
O560        O  0.37683740  0.09732572  0.75921983    -0.79300
O561        O  0.36160575  0.11463489  0.86740980    -0.77700
O562        O  0.41732936  0.08954287  0.77054439    -0.81900
O563        O  0.35746761  0.03745282  0.78874303    -0.76700
O564        O  0.38737574  0.15138697  0.79123470    -0.78500
O565        O  0.40056695  0.08515291  0.87553178    -0.81200
C566        C  0.33082759  0.03619531  0.78572617     0.99500
C567        C  0.40095093  0.09474140  0.75289140     1.07000
O568        O  0.38782070  0.09886153  0.81888373    -1.10200
O569        O  0.45219205  0.13919522  0.83912625    -0.72600
O570        O  0.44698555  0.09363670  0.82377425    -0.76100
O571        O  0.32466680  0.05589142  0.79719878    -0.76800
C572        C  0.46406513  0.12313324  0.82931775     0.98400
O573        O  0.38371809  0.04429427  0.84541123    -0.74800
O574        O  0.41254876  0.16691907  0.83231197    -0.80000
C575        C  0.33707340  0.11190959  0.85511687     1.01100
C576        C  0.40550491  0.17289826  0.80817358     1.07000
O577        O  0.33379292  0.11008206  0.82878833    -0.75600
C578        C  0.38842863  0.05528424  0.87009079     1.05300
Fe579      Fe  0.44153323  0.35060044  0.97488155     1.65800
Fe580      Fe  0.38416002  0.29874032  0.51902939     1.73200
Fe581      Fe  0.40533029  0.27126423  0.96242198     1.54400
O582        O  0.41176407  0.29692387  0.92598684    -0.79300
O583        O  0.39449637  0.26479189  0.53434771    -0.77700
O584        O  0.41976957  0.34534709  0.93710385    -0.81900
O585        O  0.47166330  0.33759319  0.95552322    -0.76700
O586        O  0.35750331  0.25354292  0.95813286    -0.78500
O587        O  0.42420051  0.33336528  0.54223627    -0.81200
C588        C  0.47276705  0.31212069  0.95265113     0.99500
C589        C  0.41455413  0.32368212  0.91952827     1.07000
O590        O  0.41024574  0.30663800  0.98564632    -1.10200
O591        O  0.37014830  0.33076211  0.50584127    -0.72600
O592        O  0.41567941  0.37115311  0.99013592    -0.76100
O593        O  0.45290665  0.28622486  0.96413623    -0.76800
C594        C  0.38620652  0.35868721  0.49581791     0.98400
O595        O  0.46497195  0.35738489  0.51200133    -0.74800
O596        O  0.34220148  0.26316603  0.49930181    -0.80000
C597        C  0.39690506  0.24279606  0.52211029     1.01100
C598        C  0.33608587  0.25008517  0.97517550     1.07000
O599        O  0.39851933  0.24117603  0.49577557    -0.75600
C600        C  0.45407457  0.35107297  0.53670865     1.05300
C601        C  0.00268185  0.37788369  0.57164837    -0.10900
C602        C  0.47761077  0.36474631  0.55884127    -0.12500
C603        C  0.08405311  0.31190595  0.54985407    -0.10900
C604        C  0.08406681  0.28885643  0.54008761    -0.12500
C605        C  0.20987602  0.40614289  0.63483730    -0.10900
C606        C  0.18853322  0.40612490  0.62162631    -0.12500
C607        C  0.30333806  0.50145728  0.74241989    -0.10900
C608        C  0.31049230  0.01600758  0.76405755    -0.12500
C609        C  0.21980925  0.31233958  0.70704075    -0.10900
C610        C  0.19663038  0.28920165  0.71670652    -0.12500
C611        C  0.08815241  0.18819746  0.64087534    -0.10900
C612        C  0.09096046  0.18815786  0.61607881    -0.12500
C613        C  0.02264960  0.15254548  0.80877759    -0.10900
C614        C  0.49757218  0.13937921  0.82157417    -0.12500
C615        C  0.28058767  0.20508511  0.95689195    -0.10900
C616        C  0.30374561  0.22824343  0.96655617    -0.12500
C617        C  0.29037896  0.11114767  0.88474586    -0.10900
C618        C  0.31172799  0.11116467  0.87156116    -0.12500
C619        C  0.12103161  0.15212363  0.94834113    -0.10900
C620        C  0.13283161  0.13886632  0.93560929    -0.12500
C621        C  0.19692376  0.01582217  0.99236415    -0.10900
C622        C  0.18973486  0.50113156  0.51393274    -0.12500
C623        C  0.13303358  0.01075901  0.65486778    -0.10900
C624        C  0.12144995  0.48570841  0.64205816    -0.12500
C625        C  0.17959286  0.09664946  0.53271577    -0.10900
C626        C  0.17959520  0.09948248  0.55751147    -0.12500
C627        C  0.19672048  0.19787536  0.59753785    -0.10900
C628        C  0.18933867  0.20524177  0.57602228    -0.12500
C629        C  0.14358951  0.12972266  0.72523033    -0.10900
C630        C  0.13034556  0.14154018  0.73796450    -0.12500
C631        C  0.10278076  0.32049335  0.80192943    -0.10900
C632        C  0.10271066  0.29912174  0.78874648    -0.12500
C633        C  0.00761543  0.31913351  0.90950549    -0.10900
C634        C  0.49300953  0.31188732  0.93112133    -0.12500
C635        C  0.13082075  0.50620034  0.85196760    -0.10900
C636        C  0.14391153  0.03125700  0.86477945    -0.12500
C637        C  0.09120972  0.42023004  0.97417290    -0.10900
C638        C  0.08843775  0.41752972  0.94935996    -0.12500
C639        C  0.41626573  0.22831820  0.78966131    -0.10900
C640        C  0.41613954  0.20518657  0.79939772    -0.12500
C641        C  0.31190955  0.21845799  0.71840612    -0.10900
C642        C  0.29050225  0.19703757  0.70524915    -0.12500
C643        C  0.02345697  0.38741369  0.78126903    -0.10900
C644        C  0.49844835  0.37576032  0.76838979    -0.12500
C645        C  0.41004033  0.32952433  0.86594517    -0.10900
C646        C  0.41270517  0.32947730  0.89076351    -0.12500
C647        C  0.37939762  0.36532376  0.69830776    -0.10900
C648        C  0.36755437  0.37856102  0.68560881    -0.12500
C649        C  0.19687248  0.42482882  0.87408355    -0.10900
C650        C  0.21995924  0.42486652  0.88383762    -0.12500
C651        C  0.20990472  0.32037633  0.95515194    -0.10900
C652        C  0.18848000  0.29897411  0.96830779    -0.12500
C653        C  0.31157152  0.31261122  0.82608189    -0.10900
C654        C  0.30413846  0.32004895  0.84753021    -0.12500
C655        C  0.35674651  0.38773655  0.97532270    -0.10900
C656        C  0.36995942  0.37587226  0.98803514    -0.12500
C657        C  0.36725880  0.50687190  0.90517794    -0.10900
C658        C  0.37885304  0.03187247  0.89229464    -0.12500
C659        C  0.32103831  0.41852669  0.80765790    -0.10900
C660        C  0.32097298  0.42121869  0.78284425    -0.12500
C661        C  0.30327447  0.09245222  0.62376389    -0.10900
C662        C  0.28024105  0.09250181  0.63354465    -0.12500
C663        C  0.39753966  0.21818207  0.53862407    -0.10900
C664        C  0.39748808  0.19682623  0.55182993    -0.12500
C665        C  0.00215674  0.14156943  0.51869188    -0.10900
C666        C  0.47709640  0.12993844  0.53149576    -0.12500
C667        C  0.49256101  0.19826947  0.65957105    -0.10900
C668        C  0.00727855  0.20554567  0.68112862    -0.12500
C669        C  0.36949603  0.01117833  0.60196862    -0.10900
C670        C  0.35640576  0.48612010  0.61478219    -0.12500
C671        C  0.41158308  0.09964124  0.69936325    -0.10900
C672        C  0.40883834  0.09682592  0.72417105    -0.12500
Fe673      Fe  0.44092536  0.60814735  0.11535087     1.65800
Fe674      Fe  0.38366200  0.60260028  0.07125834     1.73200
Fe675      Fe  0.40490014  0.65121512  0.12797883     1.54400
O676        O  0.41101341  0.63164522  0.16432754    -0.79300
O677        O  0.39413097  0.64701210  0.05602626    -0.77700
O678        O  0.41892123  0.59124705  0.15299749    -0.81900
O679        O  0.47102861  0.65121840  0.13500419    -0.76700
O680        O  0.35703221  0.62105053  0.13212196    -0.78500
O681        O  0.42371555  0.60810065  0.04809401    -0.81200
C682        C  0.47226197  0.67784149  0.13799296     0.99500
C683        C  0.41364619  0.60756044  0.17065077     1.07000
O684        O  0.40974530  0.62081652  0.10465017    -1.10200
O685        O  0.36954486  0.55647232  0.08439446    -0.72600
O686        O  0.41516949  0.56179843  0.09974144    -0.76100
O687        O  0.45253096  0.68396296  0.12651486    -0.76800
C688        C  0.38566687  0.54466442  0.09421016     0.98400
O689        O  0.46450411  0.62514012  0.07833002    -0.74800
O690        O  0.34168332  0.59605192  0.09096578    -0.80000
C691        C  0.39671983  0.67148658  0.06830804     1.01100
C692        C  0.33559170  0.60301695  0.11509222     1.07000
O693        O  0.39839628  0.67471263  0.09464977    -0.75600
C694        C  0.45359020  0.62034572  0.05362196     1.05300
Fe695      Fe  0.34239988  0.91022940  0.39159838     1.65800
Fe696      Fe  0.29044511  0.91491632  0.43604535     1.73200
Fe697      Fe  0.26301717  0.86658615  0.37912282     1.54400
O698        O  0.28859689  0.88638389  0.34275588    -0.79300
O699        O  0.25647017  0.87033150  0.45110392    -0.77700
O700        O  0.33705612  0.92696739  0.35397657    -0.81900
O701        O  0.32950895  0.86722426  0.37196929    -0.77900
O702        O  0.24513258  0.89648252  0.37524996    -0.78500
O703        O  0.32509393  0.90948114  0.45907162    -0.81200
C704        C  0.30409974  0.84048152  0.36895595     0.99500
C705        C  0.31533284  0.91058095  0.33638003     1.07000
O706        O  0.29838795  0.89708389  0.40246815    -1.10200
O707        O  0.32241616  0.96122468  0.42312877    -0.72600
O708        O  0.36285988  0.95658534  0.40713025    -0.76100
O709        O  0.27808791  0.83412751  0.38032942    -0.76800
C710        C  0.35029883  0.97338049  0.41298575     0.98400
O711        O  0.34933129  0.89340369  0.42855783    -0.74800
O712        O  0.25488316  0.92130684  0.41649484    -0.80000
C713        C  0.23455201  0.84585230  0.43875197     1.01100
C714        C  0.24174869  0.91437950  0.39238373     1.07000
O715        O  0.23300589  0.84275684  0.41240625    -0.75600
C716        C  0.34295623  0.89763444  0.45334431     1.05300
Fe717      Fe  0.40178150  0.85086390  0.28200956     1.65800
Fe718      Fe  0.40647719  0.79895113  0.23754566     1.73200
Fe719      Fe  0.35812527  0.77150743  0.29446462     1.54400
O720        O  0.37792783  0.79706934  0.33083873    -0.79300
O721        O  0.36187149  0.76502749  0.22246701    -0.77700
O722        O  0.41853212  0.84551266  0.31962086    -0.81900
O723        O  0.35876837  0.83797195  0.30165116    -0.76700
O724        O  0.38802343  0.75361996  0.29832377    -0.78500
O725        O  0.40110627  0.83364511  0.21454883    -0.81200
C726        C  0.33201336  0.81257379  0.30465679     0.99500
C727        C  0.40212592  0.82380072  0.33721921     1.07000
O728        O  0.38863445  0.80687408  0.27112810    -1.10200
O729        O  0.45279678  0.83088447  0.25048915    -0.72600
O730        O  0.44813669  0.87131875  0.26644834    -0.76100
O731        O  0.32565531  0.78657504  0.29327466    -0.76800
C732        C  0.46494637  0.85876974  0.26060404     0.98400
O733        O  0.38494816  0.85780425  0.24506583    -0.74800
O734        O  0.41280387  0.76333549  0.25705369    -0.80000
C735        C  0.33738982  0.74309509  0.23481443     1.01100
C736        C  0.40586938  0.75018834  0.28115966     1.07000
O737        O  0.33429784  0.74152455  0.26116305    -0.75600
C738        C  0.38924093  0.85148687  0.22028001     1.05300
Fe739      Fe  0.05929269  0.90921474  0.36525706     1.65800
Fe740      Fe  0.11671343  0.91477384  0.32133513     1.73200
Fe741      Fe  0.09518496  0.86603282  0.37799439     1.54400
O742        O  0.08900625  0.88557810  0.41430819    -0.79300
O743        O  0.10631389  0.87038274  0.30611066    -0.77700
O744        O  0.08115240  0.92601762  0.40298457    -0.81900
O745        O  0.02907433  0.86613367  0.38485552    -0.76700
O746        O  0.14306542  0.89610299  0.38226081    -0.78500
O747        O  0.07676141  0.90927356  0.29803131    -0.81200
C748        C  0.02783266  0.83950921  0.38786094     0.99500
C749        C  0.08638387  0.90966364  0.42063696     1.07000
O750        O  0.09049406  0.89652627  0.35465646    -1.10200
O751        O  0.13078124  0.96089701  0.33444257    -0.72600
O752        O  0.08513907  0.95559094  0.34971700    -0.76100
O753        O  0.04754458  0.83337542  0.37637264    -0.76800
C754        C  0.11465021  0.97271364  0.34421560     0.98400
O755        O  0.03586744  0.89229833  0.32815220    -0.74800
O756        O  0.15859508  0.92131533  0.34120228    -0.80000
C757        C  0.10356229  0.84583803  0.31838915     1.01100
C758        C  0.16457967  0.91424018  0.36532409     1.07000
O759        O  0.10172560  0.84253814  0.34471793    -0.75600
C760        C  0.04687220  0.89704840  0.30347336     1.05300
Fe761      Fe  0.15811945  0.60757445  0.14144718     1.65800
Fe762      Fe  0.20991280  0.60258945  0.18588170     1.73200
Fe763      Fe  0.23754116  0.65113359  0.12909330     1.54400
O764        O  0.21201628  0.63154344  0.09266121    -0.79300
O765        O  0.24392608  0.64709626  0.20106255    -0.77700
O766        O  0.16350918  0.59097998  0.10378818    -0.81900
O767        O  0.17115477  0.65070127  0.12196398    -0.76700
O768        O  0.25530304  0.62114552  0.12510934    -0.78500
O769        O  0.17527490  0.60802955  0.20893002    -0.81200
C770        C  0.19661865  0.67741304  0.11900653     0.99500
C771        C  0.18527047  0.60739217  0.08623369     1.07000
O772        O  0.20208734  0.62059019  0.15235480    -1.10200
O773        O  0.17788670  0.55634601  0.17286730    -0.72600
O774        O  0.13754340  0.56111418  0.15679189    -0.76100
O775        O  0.22257748  0.68366732  0.13042569    -0.76800
C776        C  0.15003466  0.54425713  0.16267294     0.98400
O777        O  0.15112333  0.62424982  0.17845664    -0.74800
O778        O  0.24542555  0.59614676  0.16628102    -0.80000
C779        C  0.26589662  0.67160424  0.18878062     1.01100
C780        C  0.25857281  0.60311381  0.14217210     1.07000
O781        O  0.26751809  0.67477974  0.16244215    -0.75600
C782        C  0.15743425  0.61991058  0.20323171     1.05300
Fe783      Fe  0.15816327  0.56736613  0.44871353     1.65800
Fe784      Fe  0.20993903  0.62469077  0.40451113     1.73200
Fe785      Fe  0.23754158  0.60351193  0.46103498     1.54400
O786        O  0.21197881  0.59721931  0.49750475    -0.79300
O787        O  0.24385244  0.61434405  0.38911225    -0.77700
O788        O  0.16352778  0.58923858  0.48643592    -0.81900
O789        O  0.17119079  0.53726872  0.46811233    -0.76700
O790        O  0.25537097  0.65134217  0.46527769    -0.78500
O791        O  0.17524290  0.58465049  0.38136454    -0.81200
C792        C  0.19665526  0.53611898  0.47090710     0.99500
C793        C  0.18526079  0.59454164  0.00397434     1.07000
O794        O  0.20211669  0.59861939  0.43788203    -1.10200
O795        O  0.17795069  0.63870634  0.41778188    -0.72600
O796        O  0.13755577  0.59316166  0.43343426    -0.76100
O797        O  0.22252823  0.55594104  0.45936756    -0.76800
C798        C  0.15001749  0.62263390  0.42779500     0.98400
O799        O  0.15133493  0.54388819  0.41161781    -0.74800
O800        O  0.24556393  0.66664352  0.42418954    -0.80000
C801        C  0.26582860  0.61184294  0.40129898     1.01100
C802        C  0.25874480  0.67275369  0.44827392     1.07000
O803        O  0.26749573  0.61019348  0.42762303    -0.75600
C804        C  0.15758404  0.55478266  0.38690601     1.05300
Fe805      Fe  0.05883575  0.66686106  0.22486984     1.65800
Fe806      Fe  0.11615185  0.71862455  0.26907026     1.73200
Fe807      Fe  0.09503092  0.74620995  0.21249320     1.54400
O808        O  0.08875360  0.72062925  0.17604621    -0.79300
O809        O  0.10580952  0.75254997  0.28443066    -0.77700
O810        O  0.08074219  0.67219676  0.18716751    -0.81900
O811        O  0.02875281  0.67988541  0.20543721    -0.76700
O812        O  0.14287748  0.76400240  0.20828700    -0.78500
O813        O  0.07607398  0.68393846  0.29221189    -0.81200
C814        C  0.02760533  0.70533728  0.20259327     0.99500
C815        C  0.08605985  0.69390675  0.16960680     1.07000
O816        O  0.09009405  0.71080337  0.23568644    -1.10200
O817        O  0.13018092  0.68664201  0.25581391    -0.72600
O818        O  0.08461832  0.64625493  0.24018849    -0.76100
O819        O  0.04744079  0.73122812  0.21409436    -0.76800
C820        C  0.11410592  0.65871793  0.24580208     0.98400
O821        O  0.03531684  0.66004595  0.26194646    -0.74800
O822        O  0.15813937  0.75422860  0.24940851    -0.80000
C823        C  0.10335221  0.77453423  0.27221750     1.01100
C824        C  0.16427790  0.76738317  0.22531358     1.07000
O825        O  0.10171077  0.77618029  0.24588842    -0.75600
C826        C  0.04619861  0.66627368  0.28666180     1.05300
Fe827      Fe  0.34220986  0.95007736  0.19874589     1.65800
Fe828      Fe  0.29039898  0.89271068  0.15457907     1.73200
Fe829      Fe  0.26283363  0.91388761  0.21111519     1.54400
O830        O  0.28845588  0.92032283  0.24758800    -0.79300
O831        O  0.25646389  0.90304130  0.13919436    -0.77700
O832        O  0.33690462  0.92830941  0.23652266    -0.81900
O833        O  0.32915953  0.98018492  0.21807889    -0.76700
O834        O  0.24509204  0.86608015  0.21543341    -0.78500
O835        O  0.32506061  0.93273395  0.13139183    -0.81200
C836        C  0.30366620  0.98127909  0.22088637     0.99500
C837        C  0.31521027  0.92309447  0.25407525     1.07000
O838        O  0.29825139  0.91878972  0.18794703    -1.10200
O839        O  0.32242168  0.87872190  0.16781483    -0.72600
O840        O  0.36280370  0.92424897  0.18352500    -0.76100
O841        O  0.27780649  0.96143989  0.20934092    -0.76800
C842        C  0.35035193  0.89478934  0.17783752     0.98400
O843        O  0.34902614  0.97350248  0.16162188    -0.74800
O844        O  0.25479204  0.85076908  0.17430280    -0.80000
C845        C  0.23445315  0.90547164  0.15139168     1.01100
C846        C  0.24166692  0.84466462  0.19841400     1.07000
O847        O  0.23278811  0.90708193  0.17772215    -0.75600
C848        C  0.34274420  0.96260078  0.13691729     1.05300
Fe849      Fe  0.09900155  0.66667655  0.03213801     1.65800
Fe850      Fe  0.09400089  0.71846848  0.48773646     1.73200
Fe851      Fe  0.14261536  0.74605890  0.04448323     1.54400
O852        O  0.12303067  0.72054096  0.08091815    -0.79300
O853        O  0.13851631  0.75243433  0.47252200    -0.77700
O854        O  0.08241375  0.67206727  0.06980439    -0.81900
O855        O  0.14213582  0.67968065  0.05161877    -0.76700
O856        O  0.11265437  0.76385389  0.04850654    -0.78500
O857        O  0.09937036  0.68381068  0.46467845    -0.81200
C858        C  0.16886715  0.70512726  0.05455099     0.99500
C859        C  0.09885723  0.69381613  0.08735428     1.07000
O860        O  0.11202614  0.71063144  0.02124029    -1.10200
O861        O  0.04775327  0.68647423  0.50077904    -0.72600
O862        O  0.05253833  0.64612449  0.01678190    -0.76100
O863        O  0.17513088  0.73106601  0.04310414    -0.76800
C864        C  0.03566885  0.65860842  0.01092186     0.98400
O865        O  0.11567144  0.65970150  0.49512026    -0.74800
O866        O  0.08762284  0.75400370  0.50735113    -0.80000
C867        C  0.16304803  0.77438804  0.48478875     1.01100
C868        C  0.09462641  0.76715281  0.03145575     1.07000
O869        O  0.16624829  0.77601359  0.01112402    -0.75600
C870        C  0.11127093  0.66598498  0.47035488     1.05300
Fe871      Fe  0.09964423  0.94945764  0.05821020     1.65800
Fe872      Fe  0.09425354  0.89229800  0.10233694     1.73200
Fe873      Fe  0.14277877  0.91349376  0.04554035     1.54400
O874        O  0.12318908  0.91960237  0.00920682    -0.79300
O875        O  0.13872712  0.90283648  0.11750257    -0.77700
O876        O  0.08276609  0.92747637  0.02055264    -0.81900
O877        O  0.14272660  0.97959316  0.03857514    -0.76700
O878        O  0.11259505  0.86563867  0.04142407    -0.78500
O879        O  0.09973468  0.93233672  0.12549789    -0.81200
C880        C  0.16935930  0.98083699  0.03553738     0.99500
C881        C  0.09910094  0.92223918  0.00288944     1.07000
O882        O  0.11239015  0.91833895  0.06890882    -1.10200
O883        O  0.04806620  0.87810162  0.08926441    -0.72600
O884        O  0.05327217  0.92362357  0.07379834    -0.76100
O885        O  0.17551933  0.96111493  0.04697430    -0.76800
C886        C  0.03619025  0.89413920  0.07939587     0.98400
O887        O  0.11660399  0.97305968  0.09522883    -0.74800
O888        O  0.08772738  0.85033417  0.08264637    -0.80000
C889        C  0.16316854  0.90537130  0.10518278     1.01100
C890        C  0.09462502  0.84422078  0.05849921     1.07000
O891        O  0.16633160  0.90699448  0.07883469    -0.75600
C892        C  0.11188413  0.96218530  0.11994769     1.05300
Fe893      Fe  0.40057367  0.56771296  0.30829081     1.65800
Fe894      Fe  0.40603203  0.62507264  0.35220667     1.73200
Fe895      Fe  0.35730227  0.60352002  0.29553272     1.54400
O896        O  0.37683745  0.59732574  0.25921981    -0.79300
O897        O  0.36160585  0.61463489  0.36740976    -0.77700
O898        O  0.41732945  0.58954295  0.27054440    -0.81900
O899        O  0.35746766  0.53745286  0.28874301    -0.76700
O900        O  0.38737578  0.65138700  0.29123471    -0.78500
O901        O  0.40056691  0.58515289  0.37553175    -0.81200
C902        C  0.33082760  0.53619532  0.28572612     0.99500
C903        C  0.40095100  0.59474147  0.25289147     1.07000
O904        O  0.38782071  0.59886154  0.31888374    -1.10200
O905        O  0.45219204  0.63919525  0.33912626    -0.72600
O906        O  0.44698554  0.59363668  0.32377432    -0.76100
O907        O  0.32466681  0.55589142  0.29719877    -0.76800
C908        C  0.46406515  0.62313318  0.32931776     0.98400
O909        O  0.38371802  0.54429422  0.34541123    -0.74800
O910        O  0.41254878  0.66691905  0.33231199    -0.80000
C911        C  0.33707320  0.61190959  0.35511698     1.01100
C912        C  0.40550493  0.67289829  0.30817352     1.07000
O913        O  0.33379300  0.61008209  0.32878825    -0.75600
C914        C  0.38842863  0.55528429  0.37009075     1.05300
Fe915      Fe  0.44153317  0.85060042  0.47488152     1.65800
Fe916      Fe  0.38416008  0.79874030  0.01902941     1.73200
Fe917      Fe  0.40533017  0.77126422  0.46242196     1.54400
O918        O  0.41176393  0.79692386  0.42598694    -0.79300
O919        O  0.39449651  0.76479194  0.03434770    -0.77700
O920        O  0.41976949  0.84534715  0.43710396    -0.81900
O921        O  0.47166322  0.83759319  0.45552312    -0.76700
O922        O  0.35750316  0.75354294  0.45813287    -0.78500
O923        O  0.42420046  0.83336529  0.04223629    -0.81200
C924        C  0.47276680  0.81212056  0.45265114     0.99500
C925        C  0.41455396  0.82368213  0.41952802     1.07000
O926        O  0.41024569  0.80663800  0.48564630    -1.10200
O927        O  0.37014830  0.83076204  0.00584127    -0.72600
O928        O  0.41567943  0.87115314  0.49013596    -0.76100
O929        O  0.45290661  0.78622489  0.46413612    -0.76800
C930        C  0.38620644  0.85868709  0.99581791     0.98400
O931        O  0.46497193  0.85738491  0.01200137    -0.74800
O932        O  0.34220154  0.76316588  0.99930176    -0.80000
C933        C  0.39690511  0.74279606  0.02211031     1.01100
C934        C  0.33608586  0.75008530  0.47517560     1.07000
O935        O  0.39851934  0.74117600  0.99577558    -0.75600
C936        C  0.45407459  0.85107305  0.03670873     1.05300
C937        C  0.00268241  0.87788408  0.07164859    -0.10900
C938        C  0.47761062  0.86474638  0.05884128    -0.12500
C939        C  0.08405317  0.81190609  0.04985394    -0.10900
C940        C  0.08406691  0.78885659  0.04008746    -0.12500
C941        C  0.20987596  0.90614288  0.13483735    -0.10900
C942        C  0.18853317  0.90612488  0.12162632    -0.12500
C943        C  0.30333813  0.00145732  0.24241997    -0.10900
C944        C  0.31049237  0.51600764  0.26405754    -0.12500
C945        C  0.21980921  0.81233962  0.20704078    -0.10900
C946        C  0.19663030  0.78920161  0.21670656    -0.12500
C947        C  0.08815239  0.68819738  0.14087546    -0.10900
C948        C  0.09096044  0.68815786  0.11607862    -0.12500
C949        C  0.02264932  0.65254536  0.30877766    -0.10900
C950        C  0.49757213  0.63937914  0.32157418    -0.12500
C951        C  0.28058771  0.70508530  0.45689199    -0.10900
C952        C  0.30374537  0.72824336  0.46655610    -0.12500
C953        C  0.29037869  0.61114773  0.38474599    -0.10900
C954        C  0.31172835  0.61116471  0.37156092    -0.12500
C955        C  0.12103152  0.65212362  0.44834112    -0.10900
C956        C  0.13283157  0.63886623  0.43560923    -0.12500
C957        C  0.19692378  0.51582219  0.49236413    -0.10900
C958        C  0.18973496  0.00113162  0.01393280    -0.12500
C959        C  0.13303366  0.51075905  0.15486796    -0.10900
C960        C  0.12145005  0.98570861  0.14205843    -0.12500
C961        C  0.17959288  0.59664949  0.03271574    -0.10900
C962        C  0.17959525  0.59948251  0.05751161    -0.12500
C963        C  0.19672047  0.69787531  0.09753803    -0.10900
C964        C  0.18933858  0.70524182  0.07602234    -0.12500
C965        C  0.14358934  0.62972263  0.22523044    -0.10900
C966        C  0.13034554  0.64154003  0.23796449    -0.12500
C967        C  0.10278065  0.82049354  0.30192943    -0.10900
C968        C  0.10271058  0.79912145  0.28874622    -0.12500
C969        C  0.00761526  0.81913339  0.40950548    -0.10900
C970        C  0.49300955  0.81188730  0.43112111    -0.12500
C971        C  0.13082100  0.00620084  0.35196776    -0.10900
C972        C  0.14391143  0.53125682  0.36477934    -0.12500
C973        C  0.09120980  0.92022993  0.47417287    -0.10900
C974        C  0.08843781  0.91752961  0.44935990    -0.12500
C975        C  0.41626563  0.72831822  0.28966131    -0.10900
C976        C  0.41613951  0.70518649  0.29939774    -0.12500
C977        C  0.31190943  0.71845789  0.21840605    -0.10900
C978        C  0.29050239  0.69703772  0.20524933    -0.12500
C979        C  0.02345701  0.88741371  0.28126907    -0.10900
C980        C  0.49844847  0.87576037  0.26838986    -0.12500
C981        C  0.41004021  0.82952437  0.36594478    -0.10900
C982        C  0.41270509  0.82947732  0.39076388    -0.12500
C983        C  0.37939764  0.86532359  0.19830785    -0.10900
C984        C  0.36755411  0.87856103  0.18560868    -0.12500
C985        C  0.19687247  0.92482870  0.37408364    -0.10900
C986        C  0.21995905  0.92486641  0.38383764    -0.12500
C987        C  0.20990450  0.82037600  0.45515195    -0.10900
C988        C  0.18848012  0.79897414  0.46830758    -0.12500
C989        C  0.31157154  0.81261122  0.32608187    -0.10900
C990        C  0.30413845  0.82004894  0.34753021    -0.12500
C991        C  0.35674657  0.88773654  0.47532272    -0.10900
C992        C  0.36995940  0.87587235  0.48803508    -0.12500
C993        C  0.36725872  0.00687214  0.40517782    -0.10900
C994        C  0.37885294  0.53187239  0.39229469    -0.12500
C995        C  0.32103829  0.91852664  0.30765787    -0.10900
C996        C  0.32097298  0.92121866  0.28284424    -0.12500
C997        C  0.30327453  0.59245217  0.12376391    -0.10900
C998        C  0.28024097  0.59250176  0.13354477    -0.12500
C999        C  0.39753968  0.71818204  0.03862406    -0.10900
C1000       C  0.39748808  0.69682619  0.05182993    -0.12500
C1001       C  0.00215676  0.64156954  0.01869189    -0.10900
C1002       C  0.47709633  0.62993845  0.03149578    -0.12500
C1003       C  0.49256100  0.69826946  0.15957096    -0.10900
C1004       C  0.00727856  0.70554567  0.18112859    -0.12500
C1005       C  0.36949592  0.51117806  0.10196869    -0.10900
C1006       C  0.35640572  0.98611983  0.11478233    -0.12500
C1007       C  0.41158322  0.59964136  0.19936335    -0.10900
C1008       C  0.40883848  0.59682605  0.22417100    -0.12500
Fe1009     Fe  0.44092529  0.60814731  0.61535085     1.65800
Fe1010     Fe  0.38366197  0.60260034  0.57125834     1.73200
Fe1011     Fe  0.40490018  0.65121516  0.62797883     1.54400
O1012       O  0.41101345  0.63164523  0.66432755    -0.79300
O1013       O  0.39413102  0.64701220  0.55602624    -0.77700
O1014       O  0.41892108  0.59124695  0.65299744    -0.81900
O1015       O  0.47102858  0.65121836  0.63500425    -0.76700
O1016       O  0.35703229  0.62105064  0.63212194    -0.78500
O1017       O  0.42371561  0.60810068  0.54809400    -0.81200
C1018       C  0.47226199  0.67784147  0.63799297     0.99500
C1019       C  0.41364611  0.60756038  0.67065075     1.07000
O1020       O  0.40974530  0.62081656  0.60465014    -1.10200
O1021       O  0.36954482  0.55647238  0.58439448    -0.72600
O1022       O  0.41516948  0.56179847  0.59974133    -0.76100
O1023       O  0.45253101  0.68396296  0.62651482    -0.76800
C1024       C  0.38566676  0.54466444  0.59421012     0.98400
O1025       O  0.46450414  0.62514019  0.57833001    -0.74800
O1026       O  0.34168336  0.59605203  0.59096571    -0.80000
C1027       C  0.39671989  0.67148664  0.56830808     1.01100
C1028       C  0.33559160  0.60301705  0.61509233     1.07000
O1029       O  0.39839638  0.67471274  0.59464975    -0.75600
C1030       C  0.45359009  0.62034570  0.55362199     1.05300
Fe1031     Fe  0.34239990  0.91022926  0.89159836     1.65800
Fe1032     Fe  0.29044520  0.91491636  0.93604529     1.73200
Fe1033     Fe  0.26301718  0.86658611  0.87912283     1.54400
O1034       O  0.28859687  0.88638377  0.84275583    -0.79300
O1035       O  0.25647027  0.87033157  0.95110389    -0.77700
O1036       O  0.33705613  0.92696722  0.85397653    -0.81900
O1037       O  0.32950893  0.86722411  0.87196930    -0.77900
O1038       O  0.24513263  0.89648254  0.87524999    -0.78500
O1039       O  0.32509404  0.90948111  0.95907160    -0.81200
C1040       C  0.30409960  0.84048139  0.86895602     0.99500
C1041       C  0.31533283  0.91058083  0.83638004     1.07000
O1042       O  0.29838800  0.89708382  0.90246814    -1.10200
O1043       O  0.32241627  0.96122465  0.92312873    -0.72600
O1044       O  0.36285989  0.95658517  0.90713016    -0.76100
O1045       O  0.27808792  0.83412739  0.88032939    -0.76800
C1046       C  0.35029906  0.97338059  0.91298567     0.98400
O1047       O  0.34933132  0.89340357  0.92855781    -0.74800
O1048       O  0.25488334  0.92130691  0.91649483    -0.80000
C1049       C  0.23455202  0.84585232  0.93875203     1.01100
C1050       C  0.24174874  0.91437955  0.89238363     1.07000
O1051       O  0.23300595  0.84275686  0.91240627    -0.75600
C1052       C  0.34295625  0.89763441  0.95334430     1.05300
Fe1053     Fe  0.40178147  0.85086391  0.78200956     1.65800
Fe1054     Fe  0.40647726  0.79895117  0.73754567     1.73200
Fe1055     Fe  0.35812528  0.77150741  0.79446457     1.54400
O1056       O  0.37792779  0.79706925  0.83083879    -0.79300
O1057       O  0.36187154  0.76502745  0.72246698    -0.77700
O1058       O  0.41853200  0.84551257  0.81962100    -0.81900
O1059       O  0.35876831  0.83797196  0.80165116    -0.76700
O1060       O  0.38802347  0.75361998  0.79832371    -0.78500
O1061       O  0.40110623  0.83364522  0.71454880    -0.81200
C1062       C  0.33201332  0.81257365  0.80465670     0.99500
C1063       C  0.40212589  0.82380070  0.83721896     1.07000
O1064       O  0.38863450  0.80687411  0.77112809    -1.10200
O1065       O  0.45279684  0.83088456  0.75048913    -0.72600
O1066       O  0.44813669  0.87131878  0.76644844    -0.76100
O1067       O  0.32565530  0.78657506  0.79327466    -0.76800
C1068       C  0.46494641  0.85876984  0.76060405     0.98400
O1069       O  0.38494813  0.85780432  0.74506579    -0.74800
O1070       O  0.41280401  0.76333562  0.75705368    -0.80000
C1071       C  0.33738992  0.74309513  0.73481439     1.01100
C1072       C  0.40586947  0.75018838  0.78115969     1.07000
O1073       O  0.33429784  0.74152454  0.76116300    -0.75600
C1074       C  0.38924107  0.85148678  0.72028008     1.05300
Fe1075     Fe  0.05929279  0.90921479  0.86525707     1.65800
Fe1076     Fe  0.11671357  0.91477387  0.82133517     1.73200
Fe1077     Fe  0.09518512  0.86603294  0.87799447     1.54400
O1078       O  0.08900644  0.88557821  0.91430827    -0.79300
O1079       O  0.10631399  0.87038267  0.80611071    -0.77700
O1080       O  0.08115251  0.92601766  0.90298460    -0.81900
O1081       O  0.02907455  0.86613373  0.88485551    -0.76700
O1082       O  0.14306560  0.89610314  0.88226086    -0.78500
O1083       O  0.07676154  0.90927356  0.79803131    -0.81200
C1084       C  0.02783264  0.83950924  0.88786121     0.99500
C1085       C  0.08638399  0.90966381  0.92063692     1.07000
O1086       O  0.09049418  0.89652631  0.85465650    -1.10200
O1087       O  0.13078134  0.96089701  0.83444255    -0.72600
O1088       O  0.08513910  0.95559090  0.84971696    -0.76100
O1089       O  0.04754488  0.83337547  0.87637272    -0.76800
C1090       C  0.11465038  0.97271376  0.84421562     0.98400
O1091       O  0.03586756  0.89229833  0.82815218    -0.74800
O1092       O  0.15859520  0.92131538  0.84120227    -0.80000
C1093       C  0.10356242  0.84583821  0.81838940     1.01100
C1094       C  0.16457991  0.91424028  0.86532415     1.07000
O1095       O  0.10172576  0.84253816  0.84471796    -0.75600
C1096       C  0.04687228  0.89704840  0.80347338     1.05300
Fe1097     Fe  0.15811947  0.60757453  0.64144711     1.65800
Fe1098     Fe  0.20991284  0.60258951  0.68588162     1.73200
Fe1099     Fe  0.23754120  0.65113361  0.62909322     1.54400
O1100       O  0.21201631  0.63154346  0.59266108    -0.79300
O1101       O  0.24392614  0.64709641  0.70106244    -0.77700
O1102       O  0.16350922  0.59098002  0.60378811    -0.81900
O1103       O  0.17115481  0.65070135  0.62196381    -0.76700
O1104       O  0.25530303  0.62114555  0.62510927    -0.78500
O1105       O  0.17527499  0.60802953  0.70892990    -0.81200
C1106       C  0.19661881  0.67741306  0.61900653     0.99500
C1107       C  0.18527048  0.60739219  0.58623372     1.07000
O1108       O  0.20208737  0.62059026  0.65235473    -1.10200
O1109       O  0.17788679  0.55634611  0.67286718    -0.72600
O1110       O  0.13754344  0.56111431  0.65679186    -0.76100
O1111       O  0.22257748  0.68366740  0.63042551    -0.76800
C1112       C  0.15003463  0.54425716  0.66267282     0.98400
O1113       O  0.15112345  0.62424994  0.67845656    -0.74800
O1114       O  0.24542553  0.59614683  0.66628101    -0.80000
C1115       C  0.26589663  0.67160427  0.68878052     1.01100
C1116       C  0.25857295  0.60311383  0.64217194     1.07000
O1117       O  0.26751819  0.67477982  0.66244204    -0.75600
C1118       C  0.15743420  0.61991075  0.70323165     1.05300
Fe1119     Fe  0.15816323  0.56736615  0.94871358     1.65800
Fe1120     Fe  0.20993905  0.62469070  0.90451117     1.73200
Fe1121     Fe  0.23754151  0.60351181  0.96103503     1.54400
O1122       O  0.21197869  0.59721917  0.99750477    -0.79300
O1123       O  0.24385247  0.61434396  0.88911232    -0.77700
O1124       O  0.16352772  0.58923865  0.98643590    -0.81900
O1125       O  0.17119068  0.53726874  0.96811239    -0.76700
O1126       O  0.25537098  0.65134209  0.96527785    -0.78500
O1127       O  0.17524309  0.58465081  0.88136460    -0.81200
C1128       C  0.19665508  0.53611890  0.97090711     0.99500
C1129       C  0.18526082  0.59454164  0.50397420     1.07000
O1130       O  0.20211665  0.59861934  0.93788208    -1.10200
O1131       O  0.17795072  0.63870640  0.91778197    -0.72600
O1132       O  0.13755579  0.59316180  0.93343429    -0.76100
O1133       O  0.22252808  0.55594094  0.95936752    -0.76800
C1134       C  0.15001773  0.62263399  0.92779495     0.98400
O1135       O  0.15133497  0.54388841  0.91161786    -0.74800
O1136       O  0.24556407  0.66664348  0.92418970    -0.80000
C1137       C  0.26582859  0.61184285  0.90129907     1.01100
C1138       C  0.25874473  0.67275346  0.94827393     1.07000
O1139       O  0.26749571  0.61019340  0.92762312    -0.75600
C1140       C  0.15758377  0.55478228  0.88690592     1.05300
Fe1141     Fe  0.05883572  0.66686108  0.72486985     1.65800
Fe1142     Fe  0.11615188  0.71862455  0.76907023     1.73200
Fe1143     Fe  0.09503093  0.74620999  0.71249322     1.54400
O1144       O  0.08875361  0.72062929  0.67604616    -0.79300
O1145       O  0.10580954  0.75255007  0.78443066    -0.77700
O1146       O  0.08074211  0.67219678  0.68716748    -0.81900
O1147       O  0.02875280  0.67988546  0.70543725    -0.76700
O1148       O  0.14287749  0.76400244  0.70828697    -0.78500
O1149       O  0.07607393  0.68393839  0.79221188    -0.81200
C1150       C  0.02760529  0.70533730  0.70259328     0.99500
C1151       C  0.08605980  0.69390678  0.66960688     1.07000
O1152       O  0.09009405  0.71080339  0.73568644    -1.10200
O1153       O  0.13018093  0.68664206  0.75581389    -0.72600
O1154       O  0.08461827  0.64625499  0.74018844    -0.76100
O1155       O  0.04744082  0.73122821  0.71409435    -0.76800
C1156       C  0.11410598  0.65871788  0.74580200     0.98400
O1157       O  0.03531680  0.66004592  0.76194645    -0.74800
O1158       O  0.15813940  0.75422866  0.74940843    -0.80000
C1159       C  0.10335223  0.77453403  0.77221744     1.01100
C1160       C  0.16427785  0.76738314  0.72531363     1.07000
O1161       O  0.10171076  0.77618037  0.74588848    -0.75600
C1162       C  0.04619878  0.66627375  0.78666179     1.05300
Fe1163     Fe  0.34220987  0.95007741  0.69874592     1.65800
Fe1164     Fe  0.29039901  0.89271074  0.65457908     1.73200
Fe1165     Fe  0.26283364  0.91388763  0.71111518     1.54400
O1166       O  0.28845587  0.92032283  0.74758804    -0.79300
O1167       O  0.25646394  0.90304133  0.63919438    -0.77700
O1168       O  0.33690465  0.92830948  0.73652267    -0.81900
O1169       O  0.32915948  0.98018492  0.71807886    -0.76700
O1170       O  0.24509199  0.86608010  0.71543344    -0.78500
O1171       O  0.32506066  0.93273399  0.63139185    -0.81200
C1172       C  0.30366622  0.98127920  0.72088647     0.99500
C1173       C  0.31521023  0.92309449  0.75407523     1.07000
O1174       O  0.29825141  0.91878975  0.68794704    -1.10200
O1175       O  0.32242185  0.87872199  0.66781490    -0.72600
O1176       O  0.36280381  0.92424904  0.68352506    -0.76100
O1177       O  0.27780638  0.96143983  0.70934090    -0.76800
C1178       C  0.35035182  0.89478947  0.67783749     0.98400
O1179       O  0.34902612  0.97350253  0.66162190    -0.74800
O1180       O  0.25479206  0.85076907  0.67430283    -0.80000
C1181       C  0.23445317  0.90547167  0.65139169     1.01100
C1182       C  0.24166698  0.84466470  0.69841396     1.07000
O1183       O  0.23278813  0.90708194  0.67772212    -0.75600
C1184       C  0.34274421  0.96260082  0.63691731     1.05300
Fe1185     Fe  0.09900154  0.66667649  0.53213799     1.65800
Fe1186     Fe  0.09400097  0.71846859  0.98773649     1.73200
Fe1187     Fe  0.14261532  0.74605884  0.54448315     1.54400
O1188       O  0.12303066  0.72054092  0.58091814    -0.79300
O1189       O  0.13851635  0.75243438  0.97252204    -0.77700
O1190       O  0.08241372  0.67206724  0.56980442    -0.81900
O1191       O  0.14213577  0.67968052  0.55161880    -0.76700
O1192       O  0.11265429  0.76385379  0.54850655    -0.78500
O1193       O  0.09937052  0.68381071  0.96467844    -0.81200
C1194       C  0.16886710  0.70512735  0.55455081     0.99500
C1195       C  0.09885719  0.69381607  0.58735416     1.07000
O1196       O  0.11202606  0.71063137  0.52124027    -1.10200
O1197       O  0.04775325  0.68647427  0.00077907    -0.72600
O1198       O  0.05253836  0.64612442  0.51678189    -0.76100
O1199       O  0.17513082  0.73106582  0.54310411    -0.76800
C1200       C  0.03566869  0.65860824  0.51092187     0.98400
O1201       O  0.11567153  0.65970157  0.99512029    -0.74800
O1202       O  0.08762295  0.75400378  0.00735108    -0.80000
C1203       C  0.16304819  0.77438819  0.98478883     1.01100
C1204       C  0.09462632  0.76715264  0.53145570     1.07000
O1205       O  0.16624824  0.77601354  0.51112397    -0.75600
C1206       C  0.11127096  0.66598523  0.97035497     1.05300
Fe1207     Fe  0.09964420  0.94945754  0.55821015     1.65800
Fe1208     Fe  0.09425358  0.89229803  0.60233701     1.73200
Fe1209     Fe  0.14277871  0.91349362  0.54554037     1.54400
O1210       O  0.12318904  0.91960216  0.50920685    -0.79300
O1211       O  0.13872717  0.90283652  0.61750264    -0.77700
O1212       O  0.08276607  0.92747620  0.52055259    -0.81900
O1213       O  0.14272654  0.97959303  0.53857509    -0.76700
O1214       O  0.11259502  0.86563853  0.54142412    -0.78500
O1215       O  0.09973465  0.93233676  0.62549785    -0.81200
C1216       C  0.16935928  0.98083692  0.53553726     0.99500
C1217       C  0.09910083  0.92223900  0.50288937     1.07000
O1218       O  0.11239014  0.91833890  0.56890882    -1.10200
O1219       O  0.04806602  0.87810156  0.58926440    -0.72600
O1220       O  0.05327203  0.92362344  0.57379828    -0.76100
O1221       O  0.17551930  0.96111483  0.54697421    -0.76800
C1222       C  0.03619055  0.89413925  0.57939598     0.98400
O1223       O  0.11660396  0.97305965  0.59522873    -0.74800
O1224       O  0.08772739  0.85033407  0.58264641    -0.80000
C1225       C  0.16316854  0.90537131  0.60518285     1.01100
C1226       C  0.09462496  0.84422071  0.55849944     1.07000
O1227       O  0.16633159  0.90699446  0.57883472    -0.75600
C1228       C  0.11188411  0.96218537  0.61994767     1.05300
Fe1229     Fe  0.40057361  0.56771295  0.80829077     1.65800
Fe1230     Fe  0.40603200  0.62507263  0.85220667     1.73200
Fe1231     Fe  0.35730226  0.60352008  0.79553271     1.54400
O1232       O  0.37683737  0.59732574  0.75921979    -0.79300
O1233       O  0.36160585  0.61463491  0.86740977    -0.77700
O1234       O  0.41732935  0.58954292  0.77054435    -0.81900
O1235       O  0.35746759  0.53745284  0.78874299    -0.76700
O1236       O  0.38737579  0.65138703  0.79123471    -0.78500
O1237       O  0.40056697  0.58515303  0.87553173    -0.81200
C1238       C  0.33082755  0.53619542  0.78572621     0.99500
C1239       C  0.40095089  0.59474143  0.75289142     1.07000
O1240       O  0.38782069  0.59886155  0.81888373    -1.10200
O1241       O  0.45219207  0.63919526  0.83912623    -0.72600
O1242       O  0.44698558  0.59363676  0.82377424    -0.76100
O1243       O  0.32466678  0.55589142  0.79719871    -0.76800
C1244       C  0.46406499  0.62313315  0.82931773     0.98400
O1245       O  0.38371807  0.54429433  0.84541124    -0.74800
O1246       O  0.41254879  0.66691907  0.83231203    -0.80000
C1247       C  0.33707322  0.61190964  0.85511700     1.01100
C1248       C  0.40550496  0.67289836  0.80817350     1.07000
O1249       O  0.33379299  0.61008214  0.82878826    -0.75600
C1250       C  0.38842860  0.55528416  0.87009077     1.05300
Fe1251     Fe  0.44153325  0.85060038  0.97488153     1.65800
Fe1252     Fe  0.38416002  0.79874035  0.51902942     1.73200
Fe1253     Fe  0.40533026  0.77126419  0.96242199     1.54400
O1254       O  0.41176405  0.79692385  0.92598681    -0.79300
O1255       O  0.39449642  0.76479192  0.53434773    -0.77700
O1256       O  0.41976964  0.84534711  0.93710386    -0.81900
O1257       O  0.47166332  0.83759311  0.95552322    -0.76700
O1258       O  0.35750320  0.75354286  0.95813281    -0.78500
O1259       O  0.42420037  0.83336524  0.54223629    -0.81200
C1260       C  0.47276694  0.81212054  0.95265121     0.99500
C1261       C  0.41455414  0.82368203  0.91952823     1.07000
O1262       O  0.41024576  0.80663797  0.98564631    -1.10200
O1263       O  0.37014829  0.83076208  0.50584132    -0.72600
O1264       O  0.41567944  0.87115307  0.99013586    -0.76100
O1265       O  0.45290662  0.78622476  0.96413616    -0.76800
C1266       C  0.38620642  0.85868719  0.49581795     0.98400
O1267       O  0.46497185  0.85738487  0.51200136    -0.74800
O1268       O  0.34220147  0.76316600  0.49930185    -0.80000
C1269       C  0.39690505  0.74279614  0.52211029     1.01100
C1270       C  0.33608609  0.75008535  0.97517565     1.07000
O1271       O  0.39851930  0.74117607  0.49577558    -0.75600
C1272       C  0.45407472  0.85107309  0.53670873     1.05300
C1273       C  0.00268189  0.87788372  0.57164840    -0.10900
C1274       C  0.47761058  0.86474622  0.55884117    -0.12500
C1275       C  0.08405310  0.81190588  0.54985399    -0.10900
C1276       C  0.08406683  0.78885659  0.54008760    -0.12500
C1277       C  0.20987601  0.90614296  0.63483733    -0.10900
C1278       C  0.18853318  0.90612494  0.62162634    -0.12500
C1279       C  0.30333804  0.00145719  0.74241982    -0.10900
C1280       C  0.31049223  0.51600752  0.76405745    -0.12500
C1281       C  0.21980913  0.81233952  0.70704082    -0.10900
C1282       C  0.19663043  0.78920172  0.71670649    -0.12500
C1283       C  0.08815238  0.68819740  0.64087532    -0.10900
C1284       C  0.09096043  0.68815785  0.61607874    -0.12500
C1285       C  0.02264925  0.65254524  0.80877777    -0.10900
C1286       C  0.49757230  0.63937923  0.82157407    -0.12500
C1287       C  0.28058796  0.70508541  0.95689214    -0.10900
C1288       C  0.30374526  0.72824310  0.96655605    -0.12500
C1289       C  0.29037867  0.61114765  0.88474609    -0.10900
C1290       C  0.31172833  0.61116473  0.87156099    -0.12500
C1291       C  0.12103178  0.65212365  0.94834100    -0.10900
C1292       C  0.13283156  0.63886653  0.93560932    -0.12500
C1293       C  0.19692363  0.51582216  0.99236415    -0.10900
C1294       C  0.18973493  0.00113155  0.51393280    -0.12500
C1295       C  0.13303374  0.51075927  0.65486789    -0.10900
C1296       C  0.12145002  0.98570865  0.64205829    -0.12500
C1297       C  0.17959292  0.59664949  0.53271581    -0.10900
C1298       C  0.17959528  0.59948249  0.55751142    -0.12500
C1299       C  0.19672046  0.69787546  0.59753771    -0.10900
C1300       C  0.18933870  0.70524176  0.57602240    -0.12500
C1301       C  0.14358946  0.62972261  0.72523025    -0.10900
C1302       C  0.13034543  0.64154018  0.73796450    -0.12500
C1303       C  0.10278072  0.82049326  0.80192937    -0.10900
C1304       C  0.10271061  0.79912172  0.78874645    -0.12500
C1305       C  0.00761562  0.81913361  0.90950535    -0.10900
C1306       C  0.49300963  0.81188727  0.93112125    -0.12500
C1307       C  0.13082104  0.00620068  0.85196772    -0.10900
C1308       C  0.14391166  0.53125737  0.86477964    -0.12500
C1309       C  0.09120981  0.92023009  0.97417281    -0.10900
C1310       C  0.08843789  0.91752974  0.94935999    -0.12500
C1311       C  0.41626573  0.72831833  0.78966127    -0.10900
C1312       C  0.41613955  0.70518650  0.79939777    -0.12500
C1313       C  0.31190944  0.71845786  0.71840595    -0.10900
C1314       C  0.29050253  0.69703784  0.70524926    -0.12500
C1315       C  0.02345715  0.88741376  0.78126910    -0.10900
C1316       C  0.49844848  0.87576045  0.76838983    -0.12500
C1317       C  0.41004029  0.82952433  0.86594514    -0.10900
C1318       C  0.41270516  0.82947725  0.89076351    -0.12500
C1319       C  0.37939759  0.86532384  0.69830768    -0.10900
C1320       C  0.36755436  0.87856097  0.68560881    -0.12500
C1321       C  0.19687255  0.92482878  0.87408355    -0.10900
C1322       C  0.21995932  0.92486650  0.88383765    -0.12500
C1323       C  0.20990461  0.82037617  0.95515198    -0.10900
C1324       C  0.18848014  0.79897417  0.96830770    -0.12500
C1325       C  0.31157141  0.81261118  0.82608193    -0.10900
C1326       C  0.30413836  0.82004873  0.84753008    -0.12500
C1327       C  0.35674663  0.88773648  0.97532276    -0.10900
C1328       C  0.36995940  0.87587233  0.98803504    -0.12500
C1329       C  0.36725882  0.00687195  0.90517788    -0.10900
C1330       C  0.37885311  0.53187263  0.89229458    -0.12500
C1331       C  0.32103824  0.91852654  0.80765782    -0.10900
C1332       C  0.32097297  0.92121863  0.78284430    -0.12500
C1333       C  0.30327480  0.59245229  0.62376383    -0.10900
C1334       C  0.28024085  0.59250186  0.63354483    -0.12500
C1335       C  0.39753966  0.71818204  0.53862410    -0.10900
C1336       C  0.39748811  0.69682632  0.55182990    -0.12500
C1337       C  0.00215692  0.64156951  0.51869179    -0.10900
C1338       C  0.47709642  0.62993844  0.53149572    -0.12500
C1339       C  0.49256101  0.69826942  0.65957099    -0.10900
C1340       C  0.00727853  0.70554569  0.68112867    -0.12500
C1341       C  0.36949584  0.51117811  0.60196867    -0.10900
C1342       C  0.35640571  0.98611986  0.61478234    -0.12500
C1343       C  0.41158308  0.59964126  0.69936329    -0.10900
C1344       C  0.40883832  0.59682594  0.72417096    -0.12500
Fe1345     Fe  0.94092534  0.10814736  0.11535086     1.65800
Fe1346     Fe  0.88366197  0.10260030  0.07125837     1.73200
Fe1347     Fe  0.90490020  0.15121523  0.12797881     1.54400
O1348       O  0.91101346  0.13164534  0.16432756    -0.79300
O1349       O  0.89413090  0.14701204  0.05602626    -0.77700
O1350       O  0.91892123  0.09124713  0.15299751    -0.81900
O1351       O  0.97102870  0.15121845  0.13500421    -0.76700
O1352       O  0.85703229  0.12105072  0.13212193    -0.78500
O1353       O  0.92371562  0.10810069  0.04809401    -0.81200
C1354       C  0.97226194  0.17784152  0.13799286     0.99500
C1355       C  0.91364622  0.10756052  0.17065074     1.07000
O1356       O  0.90974533  0.12081660  0.10465017    -1.10200
O1357       O  0.86954487  0.05647241  0.08439448    -0.72600
O1358       O  0.91516953  0.06179857  0.09974145    -0.76100
O1359       O  0.95253109  0.18396304  0.12651486    -0.76800
C1360       C  0.88566675  0.04466424  0.09421022     0.98400
O1361       O  0.96450415  0.12514019  0.07833000    -0.74800
O1362       O  0.84168331  0.09605192  0.09096583    -0.80000
C1363       C  0.89671988  0.17148679  0.06830792     1.01100
C1364       C  0.83559170  0.10301704  0.11509229     1.07000
O1365       O  0.89839643  0.17471270  0.09464980    -0.75600
C1366       C  0.95359002  0.12034568  0.05362199     1.05300
Fe1367     Fe  0.84239988  0.41022935  0.39159840     1.65800
Fe1368     Fe  0.79044512  0.41491632  0.43604533     1.73200
Fe1369     Fe  0.76301719  0.36658618  0.37912280     1.54400
O1370       O  0.78859689  0.38638390  0.34275589    -0.79300
O1371       O  0.75647025  0.37033162  0.45110394    -0.77700
O1372       O  0.83705617  0.42696730  0.35397655    -0.81900
O1373       O  0.82950897  0.36722420  0.37196934    -0.77900
O1374       O  0.74513263  0.39648255  0.37524999    -0.78500
O1375       O  0.82509406  0.40948109  0.45907165    -0.81200
C1376       C  0.80409970  0.34048148  0.36895597     0.99500
C1377       C  0.81533292  0.41058096  0.33638003     1.07000
O1378       O  0.79838797  0.39708388  0.40246814    -1.10200
O1379       O  0.82241624  0.46122467  0.42312878    -0.72600
O1380       O  0.86285991  0.45658527  0.40713024    -0.76100
O1381       O  0.77808791  0.33412749  0.38032940    -0.76800
C1382       C  0.85029891  0.47338054  0.41298576     0.98400
O1383       O  0.84933134  0.39340361  0.42855786    -0.74800
O1384       O  0.75488327  0.42130690  0.41649488    -0.80000
C1385       C  0.73455192  0.34585225  0.43875200     1.01100
C1386       C  0.74174861  0.41437958  0.39238368     1.07000
O1387       O  0.73300597  0.34275692  0.41240630    -0.75600
C1388       C  0.84295612  0.39763452  0.45334428     1.05300
Fe1389     Fe  0.90178148  0.35086391  0.28200953     1.65800
Fe1390     Fe  0.90647715  0.29895112  0.23754565     1.73200
Fe1391     Fe  0.85812523  0.27150745  0.29446460     1.54400
O1392       O  0.87792780  0.29706937  0.33083880    -0.79300
O1393       O  0.86187145  0.26502750  0.22246701    -0.77700
O1394       O  0.91853209  0.34551261  0.31962097    -0.81900
O1395       O  0.85876837  0.33797199  0.30165117    -0.76700
O1396       O  0.88802342  0.25362006  0.29832376    -0.78500
O1397       O  0.90110618  0.33364515  0.21454878    -0.81200
C1398       C  0.83201334  0.31257380  0.30465676     0.99500
C1399       C  0.90212593  0.32380078  0.33721893     1.07000
O1400       O  0.88863444  0.30687410  0.27112810    -1.10200
O1401       O  0.95279675  0.33088446  0.25048915    -0.72600
O1402       O  0.94813668  0.37131878  0.26644831    -0.76100
O1403       O  0.82565530  0.28657512  0.29327461    -0.76800
C1404       C  0.96494632  0.35876968  0.26060401     0.98400
O1405       O  0.88494810  0.35780429  0.24506577    -0.74800
O1406       O  0.91280381  0.26333552  0.25705363    -0.80000
C1407       C  0.83738978  0.24309507  0.23481443     1.01100
C1408       C  0.90586936  0.25018827  0.28115974     1.07000
O1409       O  0.83429783  0.24152457  0.26116308    -0.75600
C1410       C  0.88924094  0.35148679  0.22028006     1.05300
Fe1411     Fe  0.55929272  0.40921477  0.36525706     1.65800
Fe1412     Fe  0.61671351  0.41477387  0.32133516     1.73200
Fe1413     Fe  0.59518499  0.36603283  0.37799442     1.54400
O1414       O  0.58900624  0.38557809  0.41430821    -0.79300
O1415       O  0.60631394  0.37038270  0.30611070    -0.77700
O1416       O  0.58115244  0.42601764  0.40298456    -0.81900
O1417       O  0.52907438  0.36613367  0.38485552    -0.76700
O1418       O  0.64306545  0.39610306  0.38226079    -0.78500
O1419       O  0.57676144  0.40927351  0.29803129    -0.81200
C1420       C  0.52783269  0.33950921  0.38786096     0.99500
C1421       C  0.58638387  0.40966363  0.42063694     1.07000
O1422       O  0.59049409  0.39652628  0.35465647    -1.10200
O1423       O  0.63078130  0.46089706  0.33444256    -0.72600
O1424       O  0.58513911  0.45559097  0.34971699    -0.76100
O1425       O  0.54754461  0.33337540  0.37637262    -0.76800
C1426       C  0.61465025  0.47271363  0.34421559     0.98400
O1427       O  0.53586747  0.39229832  0.32815217    -0.74800
O1428       O  0.65859507  0.42131538  0.34120221    -0.80000
C1429       C  0.60356238  0.34583819  0.31838926     1.01100
C1430       C  0.66457983  0.41424022  0.36532425     1.07000
O1431       O  0.60172566  0.34253815  0.34471794    -0.75600
C1432       C  0.54687227  0.39704840  0.30347336     1.05300
Fe1433     Fe  0.65811950  0.10757445  0.14144715     1.65800
Fe1434     Fe  0.70991282  0.10258943  0.18588172     1.73200
Fe1435     Fe  0.73754121  0.15113355  0.12909329     1.54400
O1436       O  0.71201632  0.13154337  0.09266118    -0.79300
O1437       O  0.74392607  0.14709620  0.20106254    -0.77700
O1438       O  0.66350925  0.09097990  0.10378819    -0.81900
O1439       O  0.67115490  0.15070126  0.12196390    -0.76700
O1440       O  0.75530308  0.12114547  0.12510937    -0.78500
O1441       O  0.67527492  0.10802948  0.20892999    -0.81200
C1442       C  0.69661871  0.17741303  0.11900646     0.99500
C1443       C  0.68527054  0.10739213  0.08623372     1.07000
O1444       O  0.70208739  0.12059018  0.15235480    -1.10200
O1445       O  0.67788669  0.05634595  0.17286730    -0.72600
O1446       O  0.63754340  0.06111413  0.15679192    -0.76100
O1447       O  0.72257759  0.18366731  0.13042564    -0.76800
C1448       C  0.65003474  0.04425730  0.16267299     0.98400
O1449       O  0.65112339  0.12424984  0.17845661    -0.74800
O1450       O  0.74542553  0.09614668  0.16628107    -0.80000
C1451       C  0.76589663  0.17160420  0.18878065     1.01100
C1452       C  0.75857285  0.10311373  0.14217214     1.07000
O1453       O  0.76751813  0.17477969  0.16244215    -0.75600
C1454       C  0.65743422  0.11991063  0.20323168     1.05300
Fe1455     Fe  0.65816332  0.06736614  0.44871352     1.65800
Fe1456     Fe  0.70993904  0.12469073  0.40451111     1.73200
Fe1457     Fe  0.73754160  0.10351200  0.46103498     1.54400
O1458       O  0.71197876  0.09721931  0.49750474    -0.79300
O1459       O  0.74385251  0.11434394  0.38911222    -0.77700
O1460       O  0.66352774  0.08923858  0.48643586    -0.81900
O1461       O  0.67119086  0.03726880  0.46811229    -0.76700
O1462       O  0.75537087  0.15134222  0.46527772    -0.78500
O1463       O  0.67524289  0.08465051  0.38136454    -0.81200
C1464       C  0.69665532  0.03611901  0.47090711     0.99500
C1465       C  0.68526075  0.09454161  0.00397431     1.07000
O1466       O  0.70211670  0.09861939  0.43788203    -1.10200
O1467       O  0.67795057  0.13870636  0.41778190    -0.72600
O1468       O  0.63755573  0.09316175  0.43343428    -0.76100
O1469       O  0.72252834  0.05594115  0.45936756    -0.76800
C1470       C  0.65001779  0.12263380  0.42779488     0.98400
O1471       O  0.65133494  0.04388821  0.41161781    -0.74800
O1472       O  0.74556401  0.16664350  0.42418948    -0.80000
C1473       C  0.76582839  0.11184298  0.40129911     1.01100
C1474       C  0.75874479  0.17275373  0.44827384     1.07000
O1475       O  0.76749585  0.11019364  0.42762299    -0.75600
C1476       C  0.65758402  0.05478262  0.38690600     1.05300
Fe1477     Fe  0.55883572  0.16686107  0.22486983     1.65800
Fe1478     Fe  0.61615185  0.21862451  0.26907026     1.73200
Fe1479     Fe  0.59503091  0.24620998  0.21249323     1.54400
O1480       O  0.58875355  0.22062921  0.17604619    -0.79300
O1481       O  0.60580950  0.25255002  0.28443069    -0.77700
O1482       O  0.58074219  0.17219675  0.18716752    -0.81900
O1483       O  0.52875279  0.17988541  0.20543720    -0.76700
O1484       O  0.64287744  0.26400238  0.20828700    -0.78500
O1485       O  0.57607410  0.18393851  0.29221188    -0.81200
C1486       C  0.52760535  0.20533733  0.20259333     0.99500
C1487       C  0.58605983  0.19390682  0.16960684     1.07000
O1488       O  0.59009403  0.21080338  0.23568646    -1.10200
O1489       O  0.63018092  0.18664202  0.25581387    -0.72600
O1490       O  0.58461828  0.14625496  0.24018846    -0.76100
O1491       O  0.54744073  0.23122809  0.21409440    -0.76800
C1492       C  0.61410589  0.15871786  0.24580201     0.98400
O1493       O  0.53531689  0.16004596  0.26194643    -0.74800
O1494       O  0.65813934  0.25422859  0.24940850    -0.80000
C1495       C  0.60335221  0.27453408  0.27221746     1.01100
C1496       C  0.66427788  0.26738319  0.22531356     1.07000
O1497       O  0.60171078  0.27618034  0.24588845    -0.75600
C1498       C  0.54619841  0.16627353  0.28666184     1.05300
Fe1499     Fe  0.84220986  0.45007737  0.19874592     1.65800
Fe1500     Fe  0.79039892  0.39271071  0.15457909     1.73200
Fe1501     Fe  0.76283362  0.41388768  0.21111519     1.54400
O1502       O  0.78845589  0.42032288  0.24758803    -0.79300
O1503       O  0.75646389  0.40304140  0.13919437    -0.77700
O1504       O  0.83690461  0.42830939  0.23652263    -0.81900
O1505       O  0.82915949  0.48018489  0.21807886    -0.76700
O1506       O  0.74509198  0.36608021  0.21543344    -0.78500
O1507       O  0.82506066  0.43273409  0.13139184    -0.81200
C1508       C  0.80366630  0.48127927  0.22088648     0.99500
C1509       C  0.81521020  0.42309448  0.25407526     1.07000
O1510       O  0.79825137  0.41878978  0.18794703    -1.10200
O1511       O  0.82242170  0.37872190  0.16781486    -0.72600
O1512       O  0.86280371  0.42424897  0.18352502    -0.76100
O1513       O  0.77780641  0.46143988  0.20934085    -0.76800
C1514       C  0.85035176  0.39478936  0.17783749     0.98400
O1515       O  0.84902615  0.47350255  0.16162191    -0.74800
O1516       O  0.75479196  0.35076911  0.17430282    -0.80000
C1517       C  0.73445314  0.40547172  0.15139169     1.01100
C1518       C  0.74166684  0.34466465  0.19841402     1.07000
O1519       O  0.73278809  0.40708201  0.17772215    -0.75600
C1520       C  0.84274406  0.46260063  0.13691737     1.05300
Fe1521     Fe  0.59900155  0.16667654  0.03213803     1.65800
Fe1522     Fe  0.59400091  0.21846846  0.48773649     1.73200
Fe1523     Fe  0.64261533  0.24605889  0.04448322     1.54400
O1524       O  0.62303064  0.22054096  0.08091818    -0.79300
O1525       O  0.63851626  0.25243427  0.47252199    -0.77700
O1526       O  0.58241373  0.17206728  0.06980443    -0.81900
O1527       O  0.64213578  0.17968064  0.05161880    -0.76700
O1528       O  0.61265429  0.26385385  0.04850655    -0.78500
O1529       O  0.59937052  0.18381053  0.46467846    -0.81200
C1530       C  0.66886716  0.20512727  0.05455103     0.99500
C1531       C  0.59885719  0.19381610  0.08735425     1.07000
O1532       O  0.61202610  0.21063142  0.02124029    -1.10200
O1533       O  0.54775322  0.18647414  0.50077904    -0.72600
O1534       O  0.55253832  0.14612446  0.01678192    -0.76100
O1535       O  0.67513085  0.23106601  0.04310417    -0.76800
C1536       C  0.53566890  0.15860841  0.01092181     0.98400
O1537       O  0.61567143  0.15970131  0.49512024    -0.74800
O1538       O  0.58762288  0.25400366  0.50735117    -0.80000
C1539       C  0.66304814  0.27438810  0.48478873     1.01100
C1540       C  0.59462633  0.26715276  0.03145576     1.07000
O1541       O  0.66624822  0.27601358  0.01112406    -0.75600
C1542       C  0.61127077  0.16598520  0.47035502     1.05300
Fe1543     Fe  0.59964418  0.44945761  0.05821021     1.65800
Fe1544     Fe  0.59425353  0.39229801  0.10233696     1.73200
Fe1545     Fe  0.64277869  0.41349369  0.04554034     1.54400
O1546       O  0.62318901  0.41960232  0.00920684    -0.79300
O1547       O  0.63872708  0.40283647  0.11750258    -0.77700
O1548       O  0.58276604  0.42747634  0.02055263    -0.81900
O1549       O  0.64272654  0.47959311  0.03857513    -0.76700
O1550       O  0.61259495  0.36563860  0.04142406    -0.78500
O1551       O  0.59973455  0.43233659  0.12549792    -0.81200
C1552       C  0.66935922  0.48083693  0.03553738     0.99500
C1553       C  0.59910082  0.42223913  0.00288946     1.07000
O1554       O  0.61239010  0.41833892  0.06890880    -1.10200
O1555       O  0.54806603  0.37810158  0.08926436    -0.72600
O1556       O  0.55327203  0.42362351  0.07379835    -0.76100
O1557       O  0.67551927  0.46111488  0.04697430    -0.76800
C1558       C  0.53619045  0.39413923  0.07939595     0.98400
O1559       O  0.61660393  0.47305958  0.09522882    -0.74800
O1560       O  0.58772735  0.35033413  0.08264640    -0.80000
C1561       C  0.66316849  0.40537129  0.10518279     1.01100
C1562       C  0.59462494  0.34422070  0.05849926     1.07000
O1563       O  0.66633153  0.40699445  0.07883469    -0.75600
C1564       C  0.61188418  0.46218550  0.11994778     1.05300
Fe1565     Fe  0.90057365  0.06771300  0.30829079     1.65800
Fe1566     Fe  0.90603201  0.12507266  0.35220664     1.73200
Fe1567     Fe  0.85730225  0.10352005  0.29553270     1.54400
O1568       O  0.87683739  0.09732573  0.25921979    -0.79300
O1569       O  0.86160576  0.11463493  0.36740977    -0.77700
O1570       O  0.91732945  0.08954305  0.27054439    -0.81900
O1571       O  0.85746769  0.03745290  0.28874293    -0.76700
O1572       O  0.88737573  0.15138699  0.29123473    -0.78500
O1573       O  0.90056688  0.08515285  0.37553174    -0.81200
C1574       C  0.83082761  0.03619544  0.28572619     0.99500
C1575       C  0.90095098  0.09474151  0.25289149     1.07000
O1576       O  0.88782067  0.09886155  0.31888373    -1.10200
O1577       O  0.95219202  0.13919529  0.33912624    -0.72600
O1578       O  0.94698550  0.09363670  0.32377433    -0.76100
O1579       O  0.82466680  0.05589136  0.29719873    -0.76800
C1580       C  0.96406513  0.12313322  0.32931776     0.98400
O1581       O  0.88371799  0.04429423  0.34541122    -0.74800
O1582       O  0.91254875  0.16691904  0.33231204    -0.80000
C1583       C  0.83707343  0.11190963  0.35511685     1.01100
C1584       C  0.90550491  0.17289842  0.30817345     1.07000
O1585       O  0.83379292  0.11008210  0.32878833    -0.75600
C1586       C  0.88842863  0.05528437  0.37009068     1.05300
Fe1587     Fe  0.94153323  0.35060036  0.47488149     1.65800
Fe1588     Fe  0.88416004  0.29874030  0.01902940     1.73200
Fe1589     Fe  0.90533022  0.27126418  0.46242196     1.54400
O1590       O  0.91176398  0.29692383  0.42598679    -0.79300
O1591       O  0.89449645  0.26479200  0.03434767    -0.77700
O1592       O  0.91976955  0.34534707  0.43710382    -0.81900
O1593       O  0.97166329  0.33759312  0.45552311    -0.76700
O1594       O  0.85750323  0.25354289  0.45813283    -0.78500
O1595       O  0.92420043  0.33336524  0.04223630    -0.81200
C1596       C  0.97276686  0.31212050  0.45265111     0.99500
C1597       C  0.91455406  0.32368207  0.41952823     1.07000
O1598       O  0.91024573  0.30663797  0.48564628    -1.10200
O1599       O  0.87014828  0.33076200  0.00584131    -0.72600
O1600       O  0.91567946  0.37115314  0.49013588    -0.76100
O1601       O  0.95290665  0.28622480  0.46413609    -0.76800
C1602       C  0.88620642  0.35868721  0.99581789     0.98400
O1603       O  0.96497191  0.35738490  0.01200140    -0.74800
O1604       O  0.84220151  0.26316596  0.99930180    -0.80000
C1605       C  0.89690510  0.24279592  0.02211035     1.01100
C1606       C  0.83608592  0.25008529  0.47517555     1.07000
O1607       O  0.89851938  0.24117613  0.99577549    -0.75600
C1608       C  0.95407459  0.35107303  0.03670876     1.05300
C1609       C  0.50268201  0.37788388  0.07164847    -0.10900
C1610       C  0.97761061  0.36474629  0.05884132    -0.12500
C1611       C  0.58405310  0.31190604  0.04985395    -0.10900
C1612       C  0.58406682  0.28885652  0.04008747    -0.12500
C1613       C  0.70987595  0.40614297  0.13483735    -0.10900
C1614       C  0.68853314  0.40612491  0.12162632    -0.12500
C1615       C  0.80333806  0.50145719  0.24241976    -0.10900
C1616       C  0.81049224  0.01600752  0.26405744    -0.12500
C1617       C  0.71980919  0.31233969  0.20704078    -0.10900
C1618       C  0.69663025  0.28920163  0.21670657    -0.12500
C1619       C  0.58815239  0.18819743  0.14087541    -0.10900
C1620       C  0.59096043  0.18815786  0.11607871    -0.12500
C1621       C  0.52264958  0.15254544  0.30877754    -0.10900
C1622       C  0.99757210  0.13937915  0.32157419    -0.12500
C1623       C  0.78058775  0.20508536  0.45689193    -0.10900
C1624       C  0.80374542  0.22824337  0.46655605    -0.12500
C1625       C  0.79037901  0.11114774  0.38474580    -0.10900
C1626       C  0.81172802  0.11116474  0.37156115    -0.12500
C1627       C  0.62103181  0.15212335  0.44834079    -0.10900
C1628       C  0.63283136  0.13886652  0.43560942    -0.12500
C1629       C  0.69692383  0.01582229  0.49236406    -0.10900
C1630       C  0.68973489  0.50113160  0.01393281    -0.12500
C1631       C  0.63303353  0.01075883  0.15486789    -0.10900
C1632       C  0.62144993  0.48570835  0.14205826    -0.12500
C1633       C  0.67959290  0.09664947  0.03271579    -0.10900
C1634       C  0.67959528  0.09948247  0.05751157    -0.12500
C1635       C  0.69672053  0.19787529  0.09753803    -0.10900
C1636       C  0.68933856  0.20524182  0.07602232    -0.12500
C1637       C  0.64358938  0.12972260  0.22523034    -0.10900
C1638       C  0.63034547  0.14154008  0.23796447    -0.12500
C1639       C  0.60278073  0.32049337  0.30192936    -0.10900
C1640       C  0.60271061  0.29912160  0.28874637    -0.12500
C1641       C  0.50761532  0.31913343  0.40950549    -0.10900
C1642       C  0.99300957  0.31188722  0.43112107    -0.12500
C1643       C  0.63082107  0.50620089  0.35196777    -0.10900
C1644       C  0.64391144  0.03125683  0.36477937    -0.12500
C1645       C  0.59120972  0.42022993  0.47417284    -0.10900
C1646       C  0.58843774  0.41752959  0.44935992    -0.12500
C1647       C  0.91626556  0.22831836  0.28966123    -0.10900
C1648       C  0.91613945  0.20518635  0.29939780    -0.12500
C1649       C  0.81190942  0.21845788  0.21840609    -0.10900
C1650       C  0.79050235  0.19703766  0.20524933    -0.12500
C1651       C  0.52345698  0.38741365  0.28126903    -0.10900
C1652       C  0.99844844  0.37576034  0.26838986    -0.12500
C1653       C  0.91004027  0.32952439  0.36594514    -0.10900
C1654       C  0.91270512  0.32947731  0.39076346    -0.12500
C1655       C  0.87939750  0.36532368  0.19830773    -0.10900
C1656       C  0.86755416  0.37856091  0.18560877    -0.12500
C1657       C  0.69687231  0.42482873  0.37408358    -0.10900
C1658       C  0.71995928  0.42486644  0.38383777    -0.12500
C1659       C  0.70990458  0.32037615  0.45515189    -0.10900
C1660       C  0.68848001  0.29897402  0.46830767    -0.12500
C1661       C  0.81157153  0.31261124  0.32608188    -0.10900
C1662       C  0.80413842  0.32004891  0.34753017    -0.12500
C1663       C  0.85674675  0.38773643  0.47532288    -0.10900
C1664       C  0.86995934  0.37587253  0.48803498    -0.12500
C1665       C  0.86725878  0.50687207  0.40517786    -0.10900
C1666       C  0.87885287  0.03187229  0.39229472    -0.12500
C1667       C  0.82103831  0.41852661  0.30765788    -0.10900
C1668       C  0.82097298  0.42121866  0.28284425    -0.12500
C1669       C  0.80327465  0.09245221  0.12376398    -0.10900
C1670       C  0.78024096  0.09250173  0.13354487    -0.12500
C1671       C  0.89753966  0.21818226  0.03862385    -0.10900
C1672       C  0.89748812  0.19682598  0.05183003    -0.12500
C1673       C  0.50215668  0.14156946  0.01869184    -0.10900
C1674       C  0.97709645  0.12993852  0.03149566    -0.12500
C1675       C  0.99256118  0.19826960  0.15957109    -0.10900
C1676       C  0.50727852  0.20554572  0.18112860    -0.12500
C1677       C  0.86949599  0.01117831  0.10196862    -0.10900
C1678       C  0.85640573  0.48612005  0.11478221    -0.12500
C1679       C  0.91158319  0.09964143  0.19936338    -0.10900
C1680       C  0.90883846  0.09682611  0.22417095    -0.12500
Fe1681     Fe  0.94092526  0.10814729  0.61535084     1.65800
Fe1682     Fe  0.88366196  0.10260033  0.57125832     1.73200
Fe1683     Fe  0.90490014  0.15121515  0.62797884     1.54400
O1684       O  0.91101340  0.13164520  0.66432754    -0.79300
O1685       O  0.89413097  0.14701211  0.55602624    -0.77700
O1686       O  0.91892106  0.09124692  0.65299743    -0.81900
O1687       O  0.97102856  0.15121832  0.63500426    -0.76700
O1688       O  0.85703223  0.12105060  0.63212194    -0.78500
O1689       O  0.92371557  0.10810065  0.54809399    -0.81200
C1690       C  0.97226189  0.17784143  0.63799294     0.99500
C1691       C  0.91364610  0.10756036  0.67065077     1.07000
O1692       O  0.90974528  0.12081655  0.60465015    -1.10200
O1693       O  0.86954477  0.05647240  0.58439444    -0.72600
O1694       O  0.91516947  0.06179853  0.59974132    -0.76100
O1695       O  0.95253103  0.18396295  0.62651489    -0.76800
C1696       C  0.88566667  0.04466427  0.59421015     0.98400
O1697       O  0.96450410  0.12514019  0.57833002    -0.74800
O1698       O  0.84168335  0.09605203  0.59096574    -0.80000
C1699       C  0.89671986  0.17148673  0.56830801     1.01100
C1700       C  0.83559166  0.10301701  0.61509222     1.07000
O1701       O  0.89839634  0.17471266  0.59464978    -0.75600
C1702       C  0.95359007  0.12034568  0.55362199     1.05300
Fe1703     Fe  0.84239991  0.41022938  0.89159838     1.65800
Fe1704     Fe  0.79044521  0.41491645  0.93604533     1.73200
Fe1705     Fe  0.76301717  0.36658619  0.87912285     1.54400
O1706       O  0.78859688  0.38638391  0.84275590    -0.79300
O1707       O  0.75647030  0.37033173  0.95110391    -0.77700
O1708       O  0.83705615  0.42696738  0.85397657    -0.81900
O1709       O  0.82950893  0.36722424  0.87196927    -0.77900
O1710       O  0.74513268  0.39648261  0.87525004    -0.78500
O1711       O  0.82509397  0.40948124  0.95907160    -0.81200
C1712       C  0.80409963  0.34048153  0.86895603     0.99500
C1713       C  0.81533285  0.41058096  0.83638003     1.07000
O1714       O  0.79838799  0.39708393  0.90246815    -1.10200
O1715       O  0.82241624  0.46122468  0.92312875    -0.72600
O1716       O  0.86285994  0.45658523  0.90713025    -0.76100
O1717       O  0.77808795  0.33412752  0.88032943    -0.76800
C1718       C  0.85029910  0.47338073  0.91298568     0.98400
O1719       O  0.84933126  0.39340365  0.92855785    -0.74800
O1720       O  0.75488342  0.42130706  0.91649491    -0.80000
C1721       C  0.73455192  0.34585232  0.93875212     1.01100
C1722       C  0.74174863  0.41437967  0.89238358     1.07000
O1723       O  0.73300599  0.34275698  0.91240628    -0.75600
C1724       C  0.84295630  0.39763442  0.95334432     1.05300
Fe1725     Fe  0.90178143  0.35086387  0.78200957     1.65800
Fe1726     Fe  0.90647716  0.29895108  0.73754568     1.73200
Fe1727     Fe  0.85812521  0.27150737  0.79446460     1.54400
O1728       O  0.87792778  0.29706924  0.83083884    -0.79300
O1729       O  0.86187157  0.26502747  0.72246704    -0.77700
O1730       O  0.91853197  0.34551256  0.81962101    -0.81900
O1731       O  0.85876827  0.33797195  0.80165116    -0.76700
O1732       O  0.88802333  0.25361983  0.79832375    -0.78500
O1733       O  0.90110618  0.33364514  0.71454880    -0.81200
C1734       C  0.83201330  0.31257368  0.80465674     0.99500
C1735       C  0.90212581  0.32380066  0.83721898     1.07000
O1736       O  0.88863442  0.30687406  0.77112811    -1.10200
O1737       O  0.95279679  0.33088452  0.75048916    -0.72600
O1738       O  0.94813664  0.37131873  0.76644844    -0.76100
O1739       O  0.82565525  0.28657502  0.79327475    -0.76800
C1740       C  0.96494630  0.35876970  0.76060403     0.98400
O1741       O  0.88494810  0.35780426  0.74506580    -0.74800
O1742       O  0.91280393  0.26333552  0.75705375    -0.80000
C1743       C  0.83738965  0.24309494  0.73481436     1.01100
C1744       C  0.90586937  0.25018833  0.78115969     1.07000
O1745       O  0.83429777  0.24152457  0.76116307    -0.75600
C1746       C  0.88924099  0.35148673  0.72028007     1.05300
Fe1747     Fe  0.55929274  0.40921482  0.86525708     1.65800
Fe1748     Fe  0.61671354  0.41477391  0.82133518     1.73200
Fe1749     Fe  0.59518511  0.36603296  0.87799450     1.54400
O1750       O  0.58900639  0.38557825  0.91430828    -0.79300
O1751       O  0.60631396  0.37038276  0.80611074    -0.77700
O1752       O  0.58115240  0.42601766  0.90298459    -0.81900
O1753       O  0.52907449  0.36613370  0.88485550    -0.76700
O1754       O  0.64306554  0.39610318  0.88226082    -0.78500
O1755       O  0.57676155  0.40927356  0.79803130    -0.81200
C1756       C  0.52783263  0.33950926  0.88786119     0.99500
C1757       C  0.58638393  0.40966381  0.92063693     1.07000
O1758       O  0.59049414  0.39652633  0.85465651    -1.10200
O1759       O  0.63078126  0.46089692  0.83444252    -0.72600
O1760       O  0.58513899  0.45559082  0.84971697    -0.76100
O1761       O  0.54754488  0.33337548  0.87637272    -0.76800
C1762       C  0.61465043  0.47271404  0.84421569     0.98400
O1763       O  0.53586756  0.39229835  0.82815219    -0.74800
O1764       O  0.65859509  0.42131540  0.84120218    -0.80000
C1765       C  0.60356241  0.34583814  0.81838935     1.01100
C1766       C  0.66458001  0.41424037  0.86532425     1.07000
O1767       O  0.60172577  0.34253823  0.84471798    -0.75600
C1768       C  0.54687214  0.39704834  0.80347335     1.05300
Fe1769     Fe  0.65811949  0.10757455  0.64144715     1.65800
Fe1770     Fe  0.70991283  0.10258947  0.68588163     1.73200
Fe1771     Fe  0.73754121  0.15113359  0.62909322     1.54400
O1772       O  0.71201633  0.13154347  0.59266111    -0.79300
O1773       O  0.74392609  0.14709627  0.70106241    -0.77700
O1774       O  0.66350924  0.09098002  0.60378812    -0.81900
O1775       O  0.67115477  0.15070130  0.62196381    -0.76700
O1776       O  0.75530303  0.12114551  0.62510922    -0.78500
O1777       O  0.67527494  0.10802951  0.70892992    -0.81200
C1778       C  0.69661886  0.17741303  0.61900657     0.99500
C1779       C  0.68527040  0.10739211  0.58623372     1.07000
O1780       O  0.70208738  0.12059022  0.65235472    -1.10200
O1781       O  0.67788674  0.05634600  0.67286714    -0.72600
O1782       O  0.63754341  0.06111425  0.65679192    -0.76100
O1783       O  0.72257742  0.18366735  0.63042552    -0.76800
C1784       C  0.65003474  0.04425734  0.66267288     0.98400
O1785       O  0.65112349  0.12424999  0.67845659    -0.74800
O1786       O  0.74542556  0.09614678  0.66628094    -0.80000
C1787       C  0.76589674  0.17160436  0.68878064     1.01100
C1788       C  0.75857285  0.10311381  0.64217198     1.07000
O1789       O  0.76751814  0.17477973  0.66244198    -0.75600
C1790       C  0.65743431  0.11991071  0.70323166     1.05300
Fe1791     Fe  0.65816325  0.06736610  0.94871358     1.65800
Fe1792     Fe  0.70993906  0.12469072  0.90451118     1.73200
Fe1793     Fe  0.73754157  0.10351191  0.96103505     1.54400
O1794       O  0.71197878  0.09721924  0.99750480    -0.79300
O1795       O  0.74385244  0.11434391  0.88911231    -0.77700
O1796       O  0.66352776  0.08923858  0.98643594    -0.81900
O1797       O  0.67119076  0.03726873  0.96811237    -0.76700
O1798       O  0.75537087  0.15134213  0.96527782    -0.78500
O1799       O  0.67524296  0.08465063  0.88136462    -0.81200
C1800       C  0.69665527  0.03611898  0.97090711     0.99500
C1801       C  0.68526085  0.09454164  0.50397423     1.07000
O1802       O  0.70211668  0.09861933  0.93788209    -1.10200
O1803       O  0.67795072  0.13870634  0.91778195    -0.72600
O1804       O  0.63755580  0.09316167  0.93343429    -0.76100
O1805       O  0.72252823  0.05594103  0.95936760    -0.76800
C1806       C  0.65001759  0.12263395  0.92779502     0.98400
O1807       O  0.65133500  0.04388826  0.91161783    -0.74800
O1808       O  0.74556402  0.16664345  0.92418959    -0.80000
C1809       C  0.76582869  0.11184290  0.90129902     1.01100
C1810       C  0.75874481  0.17275367  0.94827397     1.07000
O1811       O  0.76749576  0.11019354  0.92762316    -0.75600
C1812       C  0.65758395  0.05478251  0.88690602     1.05300
Fe1813     Fe  0.55883576  0.16686110  0.72486987     1.65800
Fe1814     Fe  0.61615190  0.21862458  0.76907027     1.73200
Fe1815     Fe  0.59503099  0.24621004  0.71249322     1.54400
O1816       O  0.58875367  0.22062931  0.67604618    -0.79300
O1817       O  0.60580954  0.25255006  0.78443069    -0.77700
O1818       O  0.58074213  0.17219677  0.68716751    -0.81900
O1819       O  0.52875283  0.17988548  0.70543728    -0.76700
O1820       O  0.64287752  0.26400241  0.70828701    -0.78500
O1821       O  0.57607399  0.18393849  0.79221192    -0.81200
C1822       C  0.52760532  0.20533733  0.70259328     0.99500
C1823       C  0.58605986  0.19390680  0.66960689     1.07000
O1824       O  0.59009404  0.21080342  0.73568646    -1.10200
O1825       O  0.63018097  0.18664203  0.75581392    -0.72600
O1826       O  0.58461835  0.14625500  0.74018843    -0.76100
O1827       O  0.54744090  0.23122825  0.71409435    -0.76800
C1828       C  0.61410600  0.15871795  0.74580205     0.98400
O1829       O  0.53531687  0.16004594  0.76194647    -0.74800
O1830       O  0.65813942  0.25422864  0.74940854    -0.80000
C1831       C  0.60335227  0.27453418  0.77221751     1.01100
C1832       C  0.66427799  0.26738322  0.72531361     1.07000
O1833       O  0.60171083  0.27618036  0.74588844    -0.75600
C1834       C  0.54619870  0.16627372  0.78666184     1.05300
Fe1835     Fe  0.84220983  0.45007740  0.69874593     1.65800
Fe1836     Fe  0.79039896  0.39271069  0.65457910     1.73200
Fe1837     Fe  0.76283360  0.41388760  0.71111518     1.54400
O1838       O  0.78845586  0.42032282  0.74758803    -0.79300
O1839       O  0.75646396  0.40304130  0.63919440    -0.77700
O1840       O  0.83690462  0.42830946  0.73652265    -0.81900
O1841       O  0.82915945  0.48018492  0.71807888    -0.76700
O1842       O  0.74509200  0.36608010  0.71543339    -0.78500
O1843       O  0.82506065  0.43273407  0.63139184    -0.81200
C1844       C  0.80366612  0.48127911  0.72088640     0.99500
C1845       C  0.81521016  0.42309448  0.75407529     1.07000
O1846       O  0.79825138  0.41878975  0.68794704    -1.10200
O1847       O  0.82242181  0.37872195  0.66781488    -0.72600
O1848       O  0.86280376  0.42424903  0.68352509    -0.76100
O1849       O  0.77780637  0.46143985  0.70934097    -0.76800
C1850       C  0.85035182  0.39478942  0.67783750     0.98400
O1851       O  0.84902611  0.47350257  0.66162187    -0.74800
O1852       O  0.75479210  0.35076910  0.67430280    -0.80000
C1853       C  0.73445306  0.40547165  0.65139164     1.01100
C1854       C  0.74166689  0.34466458  0.69841404     1.07000
O1855       O  0.73278813  0.40708191  0.67772215    -0.75600
C1856       C  0.84274405  0.46260063  0.63691736     1.05300
Fe1857     Fe  0.59900152  0.16667643  0.53213800     1.65800
Fe1858     Fe  0.59400097  0.21846857  0.98773647     1.73200
Fe1859     Fe  0.64261537  0.24605877  0.54448315     1.54400
O1860       O  0.62303073  0.22054083  0.58091813    -0.79300
O1861       O  0.63851629  0.25243435  0.97252204    -0.77700
O1862       O  0.58241374  0.17206717  0.56980442    -0.81900
O1863       O  0.64213576  0.17968043  0.55161880    -0.76700
O1864       O  0.61265436  0.26385375  0.54850656    -0.78500
O1865       O  0.59937047  0.18381078  0.96467845    -0.81200
C1866       C  0.66886707  0.20512722  0.55455073     0.99500
C1867       C  0.59885725  0.19381601  0.58735420     1.07000
O1868       O  0.61202608  0.21063130  0.52124027    -1.10200
O1869       O  0.54775324  0.18647421  0.00077904    -0.72600
O1870       O  0.55253829  0.14612436  0.51678194    -0.76100
O1871       O  0.67513082  0.23106570  0.54310404    -0.76800
C1872       C  0.53566878  0.15860826  0.51092186     0.98400
O1873       O  0.61567147  0.15970157  0.99512029    -0.74800
O1874       O  0.58762288  0.25400372  0.00735108    -0.80000
C1875       C  0.66304827  0.27438831  0.98478880     1.01100
C1876       C  0.59462639  0.26715259  0.53145576     1.07000
O1877       O  0.66624824  0.27601344  0.51112398    -0.75600
C1878       C  0.61127101  0.16598509  0.97035493     1.05300
Fe1879     Fe  0.59964423  0.44945757  0.55821019     1.65800
Fe1880     Fe  0.59425360  0.39229803  0.60233699     1.73200
Fe1881     Fe  0.64277872  0.41349363  0.54554032     1.54400
O1882       O  0.62318899  0.41960216  0.50920683    -0.79300
O1883       O  0.63872713  0.40283651  0.61750258    -0.77700
O1884       O  0.58276608  0.42747630  0.52055259    -0.81900
O1885       O  0.64272657  0.47959310  0.53857510    -0.76700
O1886       O  0.61259499  0.36563851  0.54142406    -0.78500
O1887       O  0.59973466  0.43233665  0.62549787    -0.81200
C1888       C  0.66935926  0.48083688  0.53553730     0.99500
C1889       C  0.59910079  0.42223904  0.50288939     1.07000
O1890       O  0.61239015  0.41833889  0.56890880    -1.10200
O1891       O  0.54806606  0.37810156  0.58926436    -0.72600
O1892       O  0.55327203  0.42362345  0.57379832    -0.76100
O1893       O  0.67551927  0.46111483  0.54697417    -0.76800
C1894       C  0.53619055  0.39413924  0.57939595     0.98400
O1895       O  0.61660397  0.47305959  0.59522876    -0.74800
O1896       O  0.58772742  0.35033406  0.58264640    -0.80000
C1897       C  0.66316866  0.40537131  0.60518282     1.01100
C1898       C  0.59462501  0.34422073  0.55849938     1.07000
O1899       O  0.66633155  0.40699443  0.57883463    -0.75600
C1900       C  0.61188422  0.46218552  0.61994776     1.05300
Fe1901     Fe  0.90057369  0.06771294  0.80829080     1.65800
Fe1902     Fe  0.90603206  0.12507261  0.85220669     1.73200
Fe1903     Fe  0.85730230  0.10352003  0.79553272     1.54400
O1904       O  0.87683741  0.09732572  0.75921984    -0.79300
O1905       O  0.86160586  0.11463484  0.86740978    -0.77700
O1906       O  0.91732938  0.08954284  0.77054433    -0.81900
O1907       O  0.85746763  0.03745283  0.78874306    -0.76700
O1908       O  0.88737588  0.15138700  0.79123471    -0.78500
O1909       O  0.90056703  0.08515289  0.87553176    -0.81200
C1910       C  0.83082757  0.03619523  0.78572612     0.99500
C1911       C  0.90095101  0.09474137  0.75289142     1.07000
O1912       O  0.88782072  0.09886153  0.81888373    -1.10200
O1913       O  0.95219203  0.13919522  0.83912627    -0.72600
O1914       O  0.94698554  0.09363667  0.82377426    -0.76100
O1915       O  0.82466684  0.05589150  0.79719882    -0.76800
C1916       C  0.96406532  0.12313327  0.82931771     0.98400
O1917       O  0.88371810  0.04429423  0.84541124    -0.74800
O1918       O  0.91254881  0.16691908  0.83231203    -0.80000
C1919       C  0.83707322  0.11190957  0.85511711     1.01100
C1920       C  0.90550498  0.17289828  0.80817360     1.07000
O1921       O  0.83379310  0.11008211  0.82878822    -0.75600
C1922       C  0.88842872  0.05528426  0.87009077     1.05300
Fe1923     Fe  0.94153325  0.35060043  0.97488157     1.65800
Fe1924     Fe  0.88416005  0.29874031  0.51902938     1.73200
Fe1925     Fe  0.90533025  0.27126422  0.96242195     1.54400
O1926       O  0.91176402  0.29692386  0.92598682    -0.79300
O1927       O  0.89449645  0.26479196  0.53434770    -0.77700
O1928       O  0.91976964  0.34534713  0.93710383    -0.81900
O1929       O  0.97166335  0.33759320  0.95552321    -0.76700
O1930       O  0.85750324  0.25354292  0.95813281    -0.78500
O1931       O  0.92420057  0.33336531  0.54223626    -0.81200
C1932       C  0.97276693  0.31212059  0.95265122     0.99500
C1933       C  0.91455414  0.32368217  0.91952826     1.07000
O1934       O  0.91024575  0.30663799  0.98564630    -1.10200
O1935       O  0.87014834  0.33076216  0.50584125    -0.72600
O1936       O  0.91567943  0.37115308  0.99013593    -0.76100
O1937       O  0.95290665  0.28622486  0.96413616    -0.76800
C1938       C  0.88620658  0.35868709  0.49581796     0.98400
O1939       O  0.96497200  0.35738490  0.51200132    -0.74800
O1940       O  0.84220151  0.26316599  0.49930178    -0.80000
C1941       C  0.89690509  0.24279599  0.52211033     1.01100
C1942       C  0.83608592  0.25008525  0.97517554     1.07000
O1943       O  0.89851935  0.24117605  0.49577556    -0.75600
C1944       C  0.95407452  0.35107292  0.53670861     1.05300
C1945       C  0.50268196  0.37788375  0.57164837    -0.10900
C1946       C  0.97761087  0.36474634  0.55884132    -0.12500
C1947       C  0.58405319  0.31190585  0.54985399    -0.10900
C1948       C  0.58406688  0.28885655  0.54008763    -0.12500
C1949       C  0.70987614  0.40614291  0.63483739    -0.10900
C1950       C  0.68853307  0.40612491  0.62162618    -0.12500
C1951       C  0.80333803  0.50145731  0.74241994    -0.10900
C1952       C  0.81049232  0.01600766  0.76405767    -0.12500
C1953       C  0.71980931  0.31233965  0.70704077    -0.10900
C1954       C  0.69663031  0.28920158  0.71670661    -0.12500
C1955       C  0.58815243  0.18819742  0.64087537    -0.10900
C1956       C  0.59096046  0.18815782  0.61607874    -0.12500
C1957       C  0.52264934  0.15254536  0.80877772    -0.10900
C1958       C  0.99757200  0.13937910  0.82157422    -0.12500
C1959       C  0.78058776  0.20508525  0.95689199    -0.10900
C1960       C  0.80374547  0.22824332  0.96655609    -0.12500
C1961       C  0.79037863  0.11114768  0.88474616    -0.10900
C1962       C  0.81172845  0.11116468  0.87156094    -0.12500
C1963       C  0.62103164  0.15212369  0.94834114    -0.10900
C1964       C  0.63283163  0.13886631  0.93560929    -0.12500
C1965       C  0.69692375  0.01582218  0.99236417    -0.10900
C1966       C  0.68973495  0.50113160  0.51393271    -0.12500
C1967       C  0.63303355  0.01075898  0.65486779    -0.10900
C1968       C  0.62144997  0.48570843  0.64205822    -0.12500
C1969       C  0.67959287  0.09664943  0.53271578    -0.10900
C1970       C  0.67959523  0.09948243  0.55751147    -0.12500
C1971       C  0.69672044  0.19787542  0.59753768    -0.10900
C1972       C  0.68933872  0.20524166  0.57602243    -0.12500
C1973       C  0.64358950  0.12972272  0.72523034    -0.10900
C1974       C  0.63034558  0.14154016  0.73796446    -0.12500
C1975       C  0.60278076  0.32049346  0.80192949    -0.10900
C1976       C  0.60271064  0.29912160  0.78874637    -0.12500
C1977       C  0.50761558  0.31913362  0.90950536    -0.10900
C1978       C  0.99300964  0.31188733  0.93112122    -0.12500
C1979       C  0.63082079  0.50620034  0.85196760    -0.10900
C1980       C  0.64391149  0.03125702  0.86477945    -0.12500
C1981       C  0.59120974  0.42023007  0.97417282    -0.10900
C1982       C  0.58843783  0.41752976  0.94935999    -0.12500
C1983       C  0.91626567  0.22831818  0.78966136    -0.10900
C1984       C  0.91613953  0.20518655  0.79939779    -0.12500
C1985       C  0.81190958  0.21845805  0.71840612    -0.10900
C1986       C  0.79050223  0.19703757  0.70524912    -0.12500
C1987       C  0.52345718  0.38741374  0.78126915    -0.10900
C1988       C  0.99844848  0.37576043  0.76838985    -0.12500
C1989       C  0.91004023  0.32952432  0.86594517    -0.10900
C1990       C  0.91270513  0.32947731  0.89076350    -0.12500
C1991       C  0.87939756  0.36532375  0.69830771    -0.10900
C1992       C  0.86755433  0.37856099  0.68560879    -0.12500
C1993       C  0.69687233  0.42482887  0.87408346    -0.10900
C1994       C  0.71995949  0.42486657  0.88383775    -0.12500
C1995       C  0.70990473  0.32037638  0.95515191    -0.10900
C1996       C  0.68847997  0.29897407  0.96830781    -0.12500
C1997       C  0.81157140  0.31261124  0.82608195    -0.10900
C1998       C  0.80413840  0.32004886  0.84753011    -0.12500
C1999       C  0.85674652  0.38773656  0.97532267    -0.10900
C2000       C  0.86995945  0.37587228  0.98803508    -0.12500
C2001       C  0.86725878  0.50687188  0.90517792    -0.10900
C2002       C  0.87885307  0.03187241  0.89229469    -0.12500
C2003       C  0.82103828  0.41852664  0.80765789    -0.10900
C2004       C  0.82097295  0.42121867  0.78284424    -0.12500
C2005       C  0.80327459  0.09245221  0.62376384    -0.10900
C2006       C  0.78024093  0.09250180  0.63354475    -0.12500
C2007       C  0.89753968  0.21818219  0.53862399    -0.10900
C2008       C  0.89748809  0.19682613  0.55182998    -0.12500
C2009       C  0.50215676  0.14156945  0.51869186    -0.10900
C2010       C  0.97709635  0.12993841  0.53149574    -0.12500
C2011       C  0.99256108  0.19826945  0.65957110    -0.10900
C2012       C  0.50727860  0.20554574  0.68112870    -0.12500
C2013       C  0.86949591  0.01117830  0.60196858    -0.10900
C2014       C  0.85640576  0.48612007  0.61478220    -0.12500
C2015       C  0.91158311  0.09964123  0.69936325    -0.10900
C2016       C  0.90883837  0.09682593  0.72417099    -0.12500
Fe2017     Fe  0.94092530  0.60814731  0.11535087     1.65800
Fe2018     Fe  0.88366195  0.60260028  0.07125834     1.73200
Fe2019     Fe  0.90490015  0.65121517  0.12797883     1.54400
O2020       O  0.91101344  0.63164526  0.16432753    -0.79300
O2021       O  0.89413091  0.64701207  0.05602625    -0.77700
O2022       O  0.91892115  0.59124701  0.15299746    -0.81900
O2023       O  0.97102859  0.65121836  0.13500419    -0.76700
O2024       O  0.85703227  0.62105061  0.13212193    -0.78500
O2025       O  0.92371559  0.60810069  0.04809397    -0.81200
C2026       C  0.97226192  0.67784146  0.13799290     0.99500
C2027       C  0.91364616  0.60756047  0.17065081     1.07000
O2028       O  0.90974528  0.62081653  0.10465017    -1.10200
O2029       O  0.86954480  0.55647232  0.08439444    -0.72600
O2030       O  0.91516943  0.56179843  0.09974144    -0.76100
O2031       O  0.95253101  0.68396296  0.12651486    -0.76800
C2032       C  0.88566676  0.54466438  0.09421013     0.98400
O2033       O  0.96450411  0.62514012  0.07833001    -0.74800
O2034       O  0.84168332  0.59605194  0.09096577    -0.80000
C2035       C  0.89671981  0.67148664  0.06830800     1.01100
C2036       C  0.83559164  0.60301697  0.11509230     1.07000
O2037       O  0.89839632  0.67471266  0.09464977    -0.75600
C2038       C  0.95359004  0.62034567  0.05362198     1.05300
Fe2039     Fe  0.84239987  0.91022933  0.39159838     1.65800
Fe2040     Fe  0.79044516  0.91491633  0.43604536     1.73200
Fe2041     Fe  0.76301717  0.86658617  0.37912282     1.54400
O2042       O  0.78859686  0.88638387  0.34275588    -0.79300
O2043       O  0.75647021  0.87033147  0.45110391    -0.77700
O2044       O  0.83705610  0.92696733  0.35397656    -0.81900
O2045       O  0.82950884  0.86722421  0.37196934    -0.77900
O2046       O  0.74513265  0.89648262  0.37524994    -0.78500
O2047       O  0.82509401  0.90948116  0.45907162    -0.81200
C2048       C  0.80409971  0.84048141  0.36895588     0.99500
C2049       C  0.81533285  0.91058095  0.33638006     1.07000
O2050       O  0.79838795  0.89708387  0.40246815    -1.10200
O2051       O  0.82241620  0.96122467  0.42312876    -0.72600
O2052       O  0.86285989  0.95658530  0.40713024    -0.76100
O2053       O  0.77808780  0.83412747  0.38032944    -0.76800
C2054       C  0.85029887  0.97338047  0.41298574     0.98400
O2055       O  0.84933130  0.89340362  0.42855784    -0.74800
O2056       O  0.75488317  0.92130683  0.41649485    -0.80000
C2057       C  0.73455204  0.84585237  0.43875198     1.01100
C2058       C  0.74174876  0.91437956  0.39238377     1.07000
O2059       O  0.73300587  0.84275691  0.41240623    -0.75600
C2060       C  0.84295623  0.89763443  0.45334429     1.05300
Fe2061     Fe  0.90178145  0.85086389  0.28200953     1.65800
Fe2062     Fe  0.90647719  0.79895114  0.23754568     1.73200
Fe2063     Fe  0.85812524  0.77150746  0.29446460     1.54400
O2064       O  0.87792779  0.79706932  0.33083879    -0.79300
O2065       O  0.86187148  0.76502747  0.22246700    -0.77700
O2066       O  0.91853202  0.84551260  0.31962097    -0.81900
O2067       O  0.85876830  0.83797192  0.30165112    -0.76700
O2068       O  0.88802336  0.75361998  0.29832374    -0.78500
O2069       O  0.90110623  0.83364522  0.21454881    -0.81200
C2070       C  0.83201328  0.81257385  0.30465686     0.99500
C2071       C  0.90212591  0.82380078  0.33721897     1.07000
O2072       O  0.88863445  0.80687409  0.27112810    -1.10200
O2073       O  0.95279677  0.83088448  0.25048918    -0.72600
O2074       O  0.94813662  0.87131874  0.26644832    -0.76100
O2075       O  0.82565527  0.78657498  0.29327460    -0.76800
C2076       C  0.96494634  0.85876975  0.26060403     0.98400
O2077       O  0.88494806  0.85780426  0.24506577    -0.74800
O2078       O  0.91280385  0.76333551  0.25705368    -0.80000
C2079       C  0.83738988  0.74309518  0.23481442     1.01100
C2080       C  0.90586935  0.75018831  0.28115967     1.07000
O2081       O  0.83429780  0.74152458  0.26116304    -0.75600
C2082       C  0.88924101  0.85148675  0.22028006     1.05300
Fe2083     Fe  0.55929277  0.90921476  0.36525707     1.65800
Fe2084     Fe  0.61671350  0.91477383  0.32133514     1.73200
Fe2085     Fe  0.59518499  0.86603279  0.37799439     1.54400
O2086       O  0.58900630  0.88557808  0.41430818    -0.79300
O2087       O  0.60631393  0.87038269  0.30611067    -0.77700
O2088       O  0.58115248  0.92601763  0.40298453    -0.81900
O2089       O  0.52907443  0.86613366  0.38485552    -0.76700
O2090       O  0.64306549  0.89610298  0.38226080    -0.78500
O2091       O  0.57676148  0.90927354  0.29803130    -0.81200
C2092       C  0.52783267  0.83950921  0.38786102     0.99500
C2093       C  0.58638396  0.90966362  0.42063699     1.07000
O2094       O  0.59049410  0.89652624  0.35465646    -1.10200
O2095       O  0.63078130  0.96089701  0.33444257    -0.72600
O2096       O  0.58513913  0.95559091  0.34971700    -0.76100
O2097       O  0.54754467  0.83337538  0.37637264    -0.76800
C2098       C  0.61465032  0.97271363  0.34421558     0.98400
O2099       O  0.53586750  0.89229833  0.32815218    -0.74800
O2100       O  0.65859516  0.92131533  0.34120228    -0.80000
C2101       C  0.60356235  0.84583808  0.31838920     1.01100
C2102       C  0.66457971  0.91424016  0.36532411     1.07000
O2103       O  0.60172565  0.84253812  0.34471794    -0.75600
C2104       C  0.54687227  0.89704840  0.30347336     1.05300
Fe2105     Fe  0.65811946  0.60757444  0.14144718     1.65800
Fe2106     Fe  0.70991280  0.60258945  0.18588172     1.73200
Fe2107     Fe  0.73754117  0.65113358  0.12909328     1.54400
O2108       O  0.71201630  0.63154340  0.09266119    -0.79300
O2109       O  0.74392612  0.64709628  0.20106254    -0.77700
O2110       O  0.66350922  0.59097994  0.10378816    -0.81900
O2111       O  0.67115485  0.65070125  0.12196396    -0.76700
O2112       O  0.75530306  0.62114552  0.12510938    -0.78500
O2113       O  0.67527499  0.60802949  0.20893000    -0.81200
C2114       C  0.69661862  0.67741304  0.11900645     0.99500
C2115       C  0.68527047  0.60739214  0.08623371     1.07000
O2116       O  0.70208736  0.62059018  0.15235480    -1.10200
O2117       O  0.67788676  0.55634604  0.17286731    -0.72600
O2118       O  0.63754344  0.56111421  0.15679192    -0.76100
O2119       O  0.72257756  0.68366731  0.13042570    -0.76800
C2120       C  0.65003464  0.54425710  0.16267294     0.98400
O2121       O  0.65112341  0.62424981  0.17845663    -0.74800
O2122       O  0.74542553  0.59614675  0.16628110    -0.80000
C2123       C  0.76589657  0.67160419  0.18878059     1.01100
C2124       C  0.75857288  0.60311379  0.14217209     1.07000
O2125       O  0.76751812  0.67477975  0.16244214    -0.75600
C2126       C  0.65743414  0.61991068  0.20323175     1.05300
Fe2127     Fe  0.65816329  0.56736612  0.44871352     1.65800
Fe2128     Fe  0.70993906  0.62469077  0.40451112     1.73200
Fe2129     Fe  0.73754161  0.60351195  0.46103500     1.54400
O2130       O  0.71197883  0.59721930  0.49750474    -0.79300
O2131       O  0.74385244  0.61434400  0.38911225    -0.77700
O2132       O  0.66352779  0.58923858  0.48643590    -0.81900
O2133       O  0.67119079  0.53726873  0.46811230    -0.76700
O2134       O  0.75537090  0.65134216  0.46527771    -0.78500
O2135       O  0.67524289  0.58465050  0.38136453    -0.81200
C2136       C  0.69665532  0.53611902  0.47090706     0.99500
C2137       C  0.68526077  0.59454163  0.00397431     1.07000
O2138       O  0.70211670  0.59861939  0.43788204    -1.10200
O2139       O  0.67795069  0.63870634  0.41778190    -0.72600
O2140       O  0.63755579  0.59316167  0.43343426    -0.76100
O2141       O  0.72252825  0.55594103  0.45936757    -0.76800
C2142       C  0.65001761  0.62263395  0.42779499     0.98400
O2143       O  0.65133495  0.54388819  0.41161779    -0.74800
O2144       O  0.74556396  0.66664348  0.42418947    -0.80000
C2145       C  0.76582859  0.61184294  0.40129901     1.01100
C2146       C  0.75874487  0.67275377  0.44827397     1.07000
O2147       O  0.76749577  0.61019355  0.42762304    -0.75600
C2148       C  0.65758405  0.55478268  0.38690600     1.05300
Fe2149     Fe  0.55883571  0.66686105  0.22486986     1.65800
Fe2150     Fe  0.61615185  0.71862451  0.26907027     1.73200
Fe2151     Fe  0.59503096  0.74620996  0.21249319     1.54400
O2152       O  0.58875365  0.72062925  0.17604622    -0.79300
O2153       O  0.60580950  0.75254997  0.28443066    -0.77700
O2154       O  0.58074212  0.67219671  0.18716752    -0.81900
O2155       O  0.52875282  0.67988546  0.20543723    -0.76700
O2156       O  0.64287750  0.76400236  0.20828701    -0.78500
O2157       O  0.57607396  0.68393841  0.29221189    -0.81200
C2158       C  0.52760530  0.70533729  0.20259321     0.99500
C2159       C  0.58605983  0.69390673  0.16960683     1.07000
O2160       O  0.59009404  0.71080337  0.23568645    -1.10200
O2161       O  0.63018091  0.68664205  0.25581392    -0.72600
O2162       O  0.58461824  0.64625495  0.24018851    -0.76100
O2163       O  0.54744087  0.73122820  0.21409433    -0.76800
C2164       C  0.61410593  0.65871779  0.24580201     0.98400
O2165       O  0.53531681  0.66004596  0.26194646    -0.74800
O2166       O  0.65813934  0.75422858  0.24940854    -0.80000
C2167       C  0.60335222  0.77453413  0.27221747     1.01100
C2168       C  0.66427793  0.76738314  0.22531363     1.07000
O2169       O  0.60171080  0.77618030  0.24588842    -0.75600
C2170       C  0.54619859  0.66627365  0.28666181     1.05300
Fe2171     Fe  0.84220982  0.95007735  0.19874592     1.65800
Fe2172     Fe  0.79039895  0.89271068  0.15457909     1.73200
Fe2173     Fe  0.76283358  0.91388759  0.21111518     1.54400
O2174       O  0.78845584  0.92032278  0.24758804    -0.79300
O2175       O  0.75646387  0.90304126  0.13919438    -0.77700
O2176       O  0.83690461  0.92830941  0.23652265    -0.81900
O2177       O  0.82915944  0.98018490  0.21807890    -0.76700
O2178       O  0.74509197  0.86608014  0.21543342    -0.78500
O2179       O  0.82506061  0.93273393  0.13139185    -0.81200
C2180       C  0.80366614  0.98127910  0.22088642     0.99500
C2181       C  0.81521015  0.92309445  0.25407525     1.07000
O2182       O  0.79825134  0.91878971  0.18794704    -1.10200
O2183       O  0.82242174  0.87872189  0.16781490    -0.72600
O2184       O  0.86280372  0.92424894  0.18352505    -0.76100
O2185       O  0.77780636  0.96143982  0.20934093    -0.76800
C2186       C  0.85035180  0.89478943  0.17783752     0.98400
O2187       O  0.84902605  0.97350245  0.16162191    -0.74800
O2188       O  0.75479203  0.85076905  0.17430284    -0.80000
C2189       C  0.73445313  0.90547162  0.15139167     1.01100
C2190       C  0.74166688  0.84466458  0.19841401     1.07000
O2191       O  0.73278810  0.90708194  0.17772212    -0.75600
C2192       C  0.84274415  0.96260078  0.13691731     1.05300
Fe2193     Fe  0.59900152  0.66667654  0.03213803     1.65800
Fe2194     Fe  0.59400091  0.71846848  0.48773649     1.73200
Fe2195     Fe  0.64261531  0.74605889  0.04448325     1.54400
O2196       O  0.62303059  0.72054095  0.08091817    -0.79300
O2197       O  0.63851631  0.75243437  0.47252200    -0.77700
O2198       O  0.58241368  0.67206727  0.06980440    -0.81900
O2199       O  0.64213578  0.67968069  0.05161880    -0.76700
O2200       O  0.61265429  0.76385389  0.04850656    -0.78500
O2201       O  0.59937040  0.68381069  0.46467845    -0.81200
C2202       C  0.66886713  0.70512723  0.05455110     0.99500
C2203       C  0.59885715  0.69381610  0.08735427     1.07000
O2204       O  0.61202611  0.71063144  0.02124029    -1.10200
O2205       O  0.54775321  0.68647416  0.50077910    -0.72600
O2206       O  0.55253835  0.64612450  0.01678187    -0.76100
O2207       O  0.67513081  0.73106607  0.04310417    -0.76800
C2208       C  0.53566875  0.65860837  0.01092185     0.98400
O2209       O  0.61567148  0.65970151  0.49512024    -0.74800
O2210       O  0.58762284  0.75400367  0.50735114    -0.80000
C2211       C  0.66304804  0.77438802  0.48478875     1.01100
C2212       C  0.59462637  0.76715273  0.03145568     1.07000
O2213       O  0.66624827  0.77601361  0.01112405    -0.75600
C2214       C  0.61127095  0.66598504  0.47035491     1.05300
Fe2215     Fe  0.59964421  0.94945763  0.05821021     1.65800
Fe2216     Fe  0.59425353  0.89229803  0.10233696     1.73200
Fe2217     Fe  0.64277874  0.91349376  0.04554038     1.54400
O2218       O  0.62318909  0.91960235  0.00920687    -0.79300
O2219       O  0.63872709  0.90283645  0.11750263    -0.77700
O2220       O  0.58276610  0.92747635  0.02055262    -0.81900
O2221       O  0.64272656  0.97959315  0.03857514    -0.76700
O2222       O  0.61259505  0.86563866  0.04142408    -0.78500
O2223       O  0.59973463  0.93233674  0.12549788    -0.81200
C2224       C  0.66935927  0.98083698  0.03553739     0.99500
C2225       C  0.59910086  0.92223917  0.00288943     1.07000
O2226       O  0.61239011  0.91833894  0.06890882    -1.10200
O2227       O  0.54806605  0.87810162  0.08926437    -0.72600
O2228       O  0.55327205  0.92362354  0.07379834    -0.76100
O2229       O  0.67551928  0.96111494  0.04697433    -0.76800
C2230       C  0.53619046  0.89413932  0.07939595     0.98400
O2231       O  0.61660397  0.97305970  0.09522883    -0.74800
O2232       O  0.58772733  0.85033412  0.08264633    -0.80000
C2233       C  0.66316851  0.90537130  0.10518282     1.01100
C2234       C  0.59462500  0.84422085  0.05849930     1.07000
O2235       O  0.66633158  0.90699451  0.07883471    -0.75600
C2236       C  0.61188406  0.96218531  0.11994770     1.05300
Fe2237     Fe  0.90057365  0.56771297  0.30829082     1.65800
Fe2238     Fe  0.90603198  0.62507263  0.35220667     1.73200
Fe2239     Fe  0.85730226  0.60352001  0.29553271     1.54400
O2240       O  0.87683741  0.59732571  0.25921984    -0.79300
O2241       O  0.86160579  0.61463484  0.36740976    -0.77700
O2242       O  0.91732941  0.58954295  0.27054441    -0.81900
O2243       O  0.85746766  0.53745287  0.28874301    -0.76700
O2244       O  0.88737576  0.65138698  0.29123471    -0.78500
O2245       O  0.90056690  0.58515287  0.37553175    -0.81200
C2246       C  0.83082759  0.53619531  0.28572613     0.99500
C2247       C  0.90095101  0.59474146  0.25289144     1.07000
O2248       O  0.88782070  0.59886155  0.31888374    -1.10200
O2249       O  0.95219202  0.63919525  0.33912623    -0.72600
O2250       O  0.94698553  0.59363668  0.32377434    -0.76100
O2251       O  0.82466680  0.55589140  0.29719879    -0.76800
C2252       C  0.96406512  0.62313325  0.32931776     0.98400
O2253       O  0.88371800  0.54429422  0.34541124    -0.74800
O2254       O  0.91254869  0.66691901  0.33231206    -0.80000
C2255       C  0.83707320  0.61190957  0.35511696     1.01100
C2256       C  0.90550488  0.67289830  0.30817351     1.07000
O2257       O  0.83379298  0.61008209  0.32878824    -0.75600
C2258       C  0.88842862  0.55528431  0.37009074     1.05300
Fe2259     Fe  0.94153323  0.85060041  0.47488153     1.65800
Fe2260     Fe  0.88416008  0.79874031  0.01902946     1.73200
Fe2261     Fe  0.90533020  0.77126420  0.46242194     1.54400
O2262       O  0.91176400  0.79692389  0.42598682    -0.79300
O2263       O  0.89449649  0.76479194  0.03434771    -0.77700
O2264       O  0.91976959  0.84534715  0.43710385    -0.81900
O2265       O  0.97166330  0.83759318  0.45552313    -0.76700
O2266       O  0.85750325  0.75354295  0.45813286    -0.78500
O2267       O  0.92420027  0.83336515  0.04223631    -0.81200
C2268       C  0.97276680  0.81212052  0.45265120     0.99500
C2269       C  0.91455409  0.82368213  0.41952820     1.07000
O2270       O  0.91024573  0.80663799  0.48564629    -1.10200
O2271       O  0.87014829  0.83076206  0.00584133    -0.72600
O2272       O  0.91567948  0.87115313  0.49013591    -0.76100
O2273       O  0.95290666  0.78622490  0.46413610    -0.76800
C2274       C  0.88620650  0.85868705  0.99581797     0.98400
O2275       O  0.96497182  0.85738490  0.01200137    -0.74800
O2276       O  0.84220153  0.76316594  0.99930182    -0.80000
C2277       C  0.89690507  0.74279598  0.02211031     1.01100
C2278       C  0.83608585  0.75008523  0.47517551     1.07000
O2279       O  0.89851929  0.74117602  0.99577555    -0.75600
C2280       C  0.95407491  0.85107324  0.03670881     1.05300
C2281       C  0.50268198  0.87788388  0.07164847    -0.10900
C2282       C  0.97761032  0.86474619  0.05884108    -0.12500
C2283       C  0.58405311  0.81190598  0.04985387    -0.10900
C2284       C  0.58406685  0.78885670  0.04008750    -0.12500
C2285       C  0.70987593  0.90614288  0.13483734    -0.10900
C2286       C  0.68853312  0.90612488  0.12162634    -0.12500
C2287       C  0.80333806  0.00145727  0.24241992    -0.10900
C2288       C  0.81049235  0.51600765  0.26405755    -0.12500
C2289       C  0.71980923  0.81233961  0.20704081    -0.10900
C2290       C  0.69663031  0.78920156  0.21670660    -0.12500
C2291       C  0.58815236  0.68819734  0.14087545    -0.10900
C2292       C  0.59096039  0.68815782  0.11607866    -0.12500
C2293       C  0.52264935  0.65254531  0.30877766    -0.10900
C2294       C  0.99757212  0.63937919  0.32157415    -0.12500
C2295       C  0.78058765  0.70508518  0.45689192    -0.10900
C2296       C  0.80374553  0.72824348  0.46655613    -0.12500
C2297       C  0.79037870  0.61114771  0.38474599    -0.10900
C2298       C  0.81172828  0.61116468  0.37156095    -0.12500
C2299       C  0.62103161  0.65212363  0.44834105    -0.10900
C2300       C  0.63283159  0.63886631  0.43560925    -0.12500
C2301       C  0.69692379  0.51582219  0.49236414    -0.10900
C2302       C  0.68973496  0.00113160  0.01393281    -0.12500
C2303       C  0.63303369  0.51075911  0.15486798    -0.10900
C2304       C  0.62145001  0.98570861  0.14205842    -0.12500
C2305       C  0.67959290  0.59664949  0.03271579    -0.10900
C2306       C  0.67959526  0.59948250  0.05751157    -0.12500
C2307       C  0.69672050  0.69787524  0.09753812    -0.10900
C2308       C  0.68933852  0.70524186  0.07602225    -0.12500
C2309       C  0.64358944  0.62972251  0.22523028    -0.10900
C2310       C  0.63034537  0.64154015  0.23796454    -0.12500
C2311       C  0.60278069  0.82049344  0.30192938    -0.10900
C2312       C  0.60271058  0.79912151  0.28874627    -0.12500
C2313       C  0.50761537  0.81913347  0.40950546    -0.10900
C2314       C  0.99300964  0.81188730  0.43112103    -0.12500
C2315       C  0.63082110  0.00620083  0.35196774    -0.10900
C2316       C  0.64391140  0.53125681  0.36477932    -0.12500
C2317       C  0.59120978  0.92022992  0.47417292    -0.10900
C2318       C  0.58843786  0.91752957  0.44935983    -0.12500
C2319       C  0.91626559  0.72831826  0.28966130    -0.10900
C2320       C  0.91613943  0.70518641  0.29939778    -0.12500
C2321       C  0.81190936  0.71845785  0.21840599    -0.10900
C2322       C  0.79050246  0.69703782  0.20524935    -0.12500
C2323       C  0.52345707  0.88741370  0.28126907    -0.10900
C2324       C  0.99844840  0.87576037  0.26838984    -0.12500
C2325       C  0.91004026  0.82952439  0.36594508    -0.10900
C2326       C  0.91270512  0.82947735  0.39076353    -0.12500
C2327       C  0.87939756  0.86532378  0.19830767    -0.10900
C2328       C  0.86755427  0.87856092  0.18560881    -0.12500
C2329       C  0.69687255  0.92482873  0.37408366    -0.10900
C2330       C  0.71995910  0.92486649  0.38383769    -0.12500
C2331       C  0.70990446  0.82037601  0.45515194    -0.10900
C2332       C  0.68848016  0.79897417  0.46830757    -0.12500
C2333       C  0.81157155  0.81261112  0.32608173    -0.10900
C2334       C  0.80413830  0.82004894  0.34753032    -0.12500
C2335       C  0.85674662  0.88773649  0.47532275    -0.10900
C2336       C  0.86995944  0.87587240  0.48803505    -0.12500
C2337       C  0.86725877  0.00687213  0.40517779    -0.10900
C2338       C  0.87885290  0.53187237  0.39229471    -0.12500
C2339       C  0.82103825  0.91852661  0.30765785    -0.10900
C2340       C  0.82097294  0.92121864  0.28284428    -0.12500
C2341       C  0.80327464  0.59245216  0.12376391    -0.10900
C2342       C  0.78024088  0.59250176  0.13354487    -0.12500
C2343       C  0.89753965  0.71818210  0.03862399    -0.10900
C2344       C  0.89748805  0.69682611  0.05182996    -0.12500
C2345       C  0.50215692  0.64156963  0.01869178    -0.10900
C2346       C  0.97709644  0.62993851  0.03149569    -0.12500
C2347       C  0.99256107  0.69826947  0.15957103    -0.10900
C2348       C  0.50727861  0.70554575  0.18112866    -0.12500
C2349       C  0.86949584  0.51117807  0.10196866    -0.10900
C2350       C  0.85640563  0.98611980  0.11478236    -0.12500
C2351       C  0.91158321  0.59964138  0.19936329    -0.10900
C2352       C  0.90883848  0.59682605  0.22417106    -0.12500
Fe2353     Fe  0.94092532  0.60814733  0.61535086     1.65800
Fe2354     Fe  0.88366203  0.60260036  0.57125831     1.73200
Fe2355     Fe  0.90490018  0.65121516  0.62797882     1.54400
O2356       O  0.91101347  0.63164522  0.66432755    -0.79300
O2357       O  0.89413110  0.64701211  0.55602625    -0.77700
O2358       O  0.91892113  0.59124695  0.65299743    -0.81900
O2359       O  0.97102860  0.65121838  0.63500423    -0.76700
O2360       O  0.85703225  0.62105058  0.63212198    -0.78500
O2361       O  0.92371553  0.60810060  0.54809403    -0.81200
C2362       C  0.97226196  0.67784149  0.63799293     0.99500
C2363       C  0.91364615  0.60756044  0.67065080     1.07000
O2364       O  0.90974532  0.62081655  0.60465015    -1.10200
O2365       O  0.86954484  0.55647237  0.58439450    -0.72600
O2366       O  0.91516951  0.56179846  0.59974138    -0.76100
O2367       O  0.95253103  0.68396297  0.62651484    -0.76800
C2368       C  0.88566678  0.54466442  0.59421015     0.98400
O2369       O  0.96450411  0.62514016  0.57833004    -0.74800
O2370       O  0.84168339  0.59605208  0.59096575    -0.80000
C2371       C  0.89671990  0.67148682  0.56830794     1.01100
C2372       C  0.83559176  0.60301706  0.61509222     1.07000
O2373       O  0.89839630  0.67471261  0.59464981    -0.75600
C2374       C  0.95359022  0.62034570  0.55362197     1.05300
Fe2375     Fe  0.84239990  0.91022926  0.89159837     1.65800
Fe2376     Fe  0.79044520  0.91491636  0.93604528     1.73200
Fe2377     Fe  0.76301720  0.86658607  0.87912285     1.54400
O2378       O  0.78859692  0.88638379  0.84275586    -0.79300
O2379       O  0.75647022  0.87033161  0.95110389    -0.77700
O2380       O  0.83705617  0.92696724  0.85397655    -0.81900
O2381       O  0.82950896  0.86722412  0.87196932    -0.77900
O2382       O  0.74513259  0.89648244  0.87524998    -0.78500
O2383       O  0.82509401  0.90948107  0.95907160    -0.81200
C2384       C  0.80409971  0.84048139  0.86895600     0.99500
C2385       C  0.81533283  0.91058081  0.83638004     1.07000
O2386       O  0.79838800  0.89708383  0.90246814    -1.10200
O2387       O  0.82241628  0.96122462  0.92312872    -0.72600
O2388       O  0.86285993  0.95658520  0.90713020    -0.76100
O2389       O  0.77808794  0.83412739  0.88032944    -0.76800
C2390       C  0.85029907  0.97338054  0.91298569     0.98400
O2391       O  0.84933136  0.89340359  0.92855787    -0.74800
O2392       O  0.75488335  0.92130695  0.91649476    -0.80000
C2393       C  0.73455203  0.84585232  0.93875201     1.01100
C2394       C  0.74174873  0.91437949  0.89238358     1.07000
O2395       O  0.73300595  0.84275680  0.91240629    -0.75600
C2396       C  0.84295617  0.89763444  0.95334425     1.05300
Fe2397     Fe  0.90178150  0.85086392  0.78200957     1.65800
Fe2398     Fe  0.90647725  0.79895118  0.73754565     1.73200
Fe2399     Fe  0.85812530  0.77150743  0.79446458     1.54400
O2400       O  0.87792785  0.79706929  0.83083882    -0.79300
O2401       O  0.86187153  0.76502747  0.72246700    -0.77700
O2402       O  0.91853207  0.84551256  0.81962099    -0.81900
O2403       O  0.85876838  0.83797194  0.80165117    -0.76700
O2404       O  0.88802350  0.75362000  0.79832373    -0.78500
O2405       O  0.90110624  0.83364519  0.71454882    -0.81200
C2406       C  0.83201335  0.81257371  0.80465676     0.99500
C2407       C  0.90212592  0.82380069  0.83721892     1.07000
O2408       O  0.88863450  0.80687412  0.77112809    -1.10200
O2409       O  0.95279682  0.83088453  0.75048911    -0.72600
O2410       O  0.94813672  0.87131879  0.76644842    -0.76100
O2411       O  0.82565533  0.78657505  0.79327465    -0.76800
C2412       C  0.96494643  0.85876983  0.76060406     0.98400
O2413       O  0.88494818  0.85780433  0.74506583    -0.74800
O2414       O  0.91280398  0.76333559  0.75705367    -0.80000
C2415       C  0.83738993  0.74309515  0.73481443     1.01100
C2416       C  0.90586947  0.75018839  0.78115967     1.07000
O2417       O  0.83429787  0.74152452  0.76116301    -0.75600
C2418       C  0.88924103  0.85148687  0.72028007     1.05300
Fe2419     Fe  0.55929271  0.90921478  0.86525709     1.65800
Fe2420     Fe  0.61671349  0.91477388  0.82133516     1.73200
Fe2421     Fe  0.59518508  0.86603294  0.87799446     1.54400
O2422       O  0.58900635  0.88557822  0.91430828    -0.79300
O2423       O  0.60631393  0.87038274  0.80611071    -0.77700
O2424       O  0.58115239  0.92601766  0.90298459    -0.81900
O2425       O  0.52907443  0.86613372  0.88485552    -0.76700
O2426       O  0.64306554  0.89610314  0.88226086    -0.78500
O2427       O  0.57676148  0.90927359  0.79803132    -0.81200
C2428       C  0.52783268  0.83950924  0.88786109     0.99500
C2429       C  0.58638389  0.90966375  0.92063697     1.07000
O2430       O  0.59049411  0.89652633  0.85465651    -1.10200
O2431       O  0.63078126  0.96089703  0.83444256    -0.72600
O2432       O  0.58513901  0.95559090  0.84971702    -0.76100
O2433       O  0.54754476  0.83337550  0.87637272    -0.76800
C2434       C  0.61465029  0.97271376  0.84421564     0.98400
O2435       O  0.53586750  0.89229835  0.82815221    -0.74800
O2436       O  0.65859512  0.92131538  0.84120228    -0.80000
C2437       C  0.60356235  0.84583810  0.81838930     1.01100
C2438       C  0.66457982  0.91424027  0.86532414     1.07000
O2439       O  0.60172573  0.84253821  0.84471796    -0.75600
C2440       C  0.54687223  0.89704842  0.80347339     1.05300
Fe2441     Fe  0.65811949  0.60757454  0.64144713     1.65800
Fe2442     Fe  0.70991286  0.60258951  0.68588161     1.73200
Fe2443     Fe  0.73754121  0.65113364  0.62909324     1.54400
O2444       O  0.71201629  0.63154348  0.59266108    -0.79300
O2445       O  0.74392618  0.64709640  0.70106244    -0.77700
O2446       O  0.66350920  0.59098005  0.60378814    -0.81900
O2447       O  0.67115475  0.65070137  0.62196386    -0.76700
O2448       O  0.75530306  0.62114556  0.62510921    -0.78500
O2449       O  0.67527492  0.60802958  0.70892993    -0.81200
C2450       C  0.69661887  0.67741308  0.61900663     0.99500
C2451       C  0.68527050  0.60739227  0.58623370     1.07000
O2452       O  0.70208738  0.62059026  0.65235472    -1.10200
O2453       O  0.67788677  0.55634608  0.67286716    -0.72600
O2454       O  0.63754345  0.56111430  0.65679183    -0.76100
O2455       O  0.72257743  0.68366741  0.63042553    -0.76800
C2456       C  0.65003469  0.54425718  0.66267283     0.98400
O2457       O  0.65112343  0.62424995  0.67845659    -0.74800
O2458       O  0.74542561  0.59614686  0.66628091    -0.80000
C2459       C  0.76589662  0.67160423  0.68878053     1.01100
C2460       C  0.75857285  0.60311389  0.64217199     1.07000
O2461       O  0.76751820  0.67477982  0.66244205    -0.75600
C2462       C  0.65743436  0.61991065  0.70323163     1.05300
Fe2463     Fe  0.65816326  0.56736613  0.94871357     1.65800
Fe2464     Fe  0.70993905  0.62469071  0.90451118     1.73200
Fe2465     Fe  0.73754154  0.60351186  0.96103504     1.54400
O2466       O  0.71197876  0.59721919  0.99750479    -0.79300
O2467       O  0.74385245  0.61434394  0.88911231    -0.77700
O2468       O  0.66352780  0.58923866  0.98643593    -0.81900
O2469       O  0.67119073  0.53726875  0.96811240    -0.76700
O2470       O  0.75537094  0.65134211  0.96527785    -0.78500
O2471       O  0.67524305  0.58465081  0.88136462    -0.81200
C2472       C  0.69665523  0.53611897  0.97090710     0.99500
C2473       C  0.68526082  0.59454163  0.50397421     1.07000
O2474       O  0.70211668  0.59861934  0.93788208    -1.10200
O2475       O  0.67795077  0.63870639  0.91778199    -0.72600
O2476       O  0.63755581  0.59316172  0.93343425    -0.76100
O2477       O  0.72252814  0.55594096  0.95936756    -0.76800
C2478       C  0.65001762  0.62263398  0.92779501     0.98400
O2479       O  0.65133505  0.54388838  0.91161786    -0.74800
O2480       O  0.74556405  0.66664348  0.92418966    -0.80000
C2481       C  0.76582864  0.61184289  0.90129904     1.01100
C2482       C  0.75874480  0.67275358  0.94827398     1.07000
O2483       O  0.76749575  0.61019346  0.92762312    -0.75600
C2484       C  0.65758379  0.55478225  0.88690592     1.05300
Fe2485     Fe  0.55883576  0.66686107  0.72486983     1.65800
Fe2486     Fe  0.61615186  0.71862459  0.76907025     1.73200
Fe2487     Fe  0.59503095  0.74620998  0.71249319     1.54400
O2488       O  0.58875361  0.72062928  0.67604616    -0.79300
O2489       O  0.60580946  0.75255001  0.78443064    -0.77700
O2490       O  0.58074217  0.67219679  0.68716746    -0.81900
O2491       O  0.52875285  0.67988547  0.70543726    -0.76700
O2492       O  0.64287753  0.76400241  0.70828694    -0.78500
O2493       O  0.57607390  0.68393842  0.79221188    -0.81200
C2494       C  0.52760530  0.70533727  0.70259326     0.99500
C2495       C  0.58605983  0.69390675  0.66960683     1.07000
O2496       O  0.59009405  0.71080340  0.73568643    -1.10200
O2497       O  0.63018093  0.68664202  0.75581391    -0.72600
O2498       O  0.58461836  0.64625496  0.74018841    -0.76100
O2499       O  0.54744089  0.73122822  0.71409436    -0.76800
C2500       C  0.61410598  0.65871803  0.74580209     0.98400
O2501       O  0.53531678  0.66004588  0.76194645    -0.74800
O2502       O  0.65813941  0.75422871  0.74940845    -0.80000
C2503       C  0.60335222  0.77453419  0.77221746     1.01100
C2504       C  0.66427782  0.76738312  0.72531363     1.07000
O2505       O  0.60171082  0.77618037  0.74588841    -0.75600
C2506       C  0.54619877  0.66627375  0.78666176     1.05300
Fe2507     Fe  0.84220985  0.95007744  0.69874593     1.65800
Fe2508     Fe  0.79039900  0.89271075  0.65457909     1.73200
Fe2509     Fe  0.76283360  0.91388764  0.71111518     1.54400
O2510       O  0.78845586  0.92032285  0.74758804    -0.79300
O2511       O  0.75646393  0.90304136  0.63919436    -0.77700
O2512       O  0.83690464  0.92830951  0.73652268    -0.81900
O2513       O  0.82915939  0.98018491  0.71807884    -0.76700
O2514       O  0.74509201  0.86608009  0.71543344    -0.78500
O2515       O  0.82506064  0.93273401  0.63139185    -0.81200
C2516       C  0.80366620  0.98127927  0.72088655     0.99500
C2517       C  0.81521018  0.92309450  0.75407525     1.07000
O2518       O  0.79825139  0.91878977  0.68794705    -1.10200
O2519       O  0.82242178  0.87872198  0.66781490    -0.72600
O2520       O  0.86280377  0.92424908  0.68352507    -0.76100
O2521       O  0.77780625  0.96143976  0.70934087    -0.76800
C2522       C  0.85035188  0.89478947  0.67783753     0.98400
O2523       O  0.84902607  0.97350255  0.66162189    -0.74800
O2524       O  0.75479203  0.85076907  0.67430282    -0.80000
C2525       C  0.73445317  0.90547167  0.65139167     1.01100
C2526       C  0.74166701  0.84466473  0.69841396     1.07000
O2527       O  0.73278807  0.90708190  0.67772212    -0.75600
C2528       C  0.84274414  0.96260082  0.63691731     1.05300
Fe2529     Fe  0.59900157  0.66667649  0.53213799     1.65800
Fe2530     Fe  0.59400097  0.71846858  0.98773646     1.73200
Fe2531     Fe  0.64261538  0.74605884  0.54448315     1.54400
O2532       O  0.62303074  0.72054091  0.58091812    -0.79300
O2533       O  0.63851638  0.75243437  0.97252206    -0.77700
O2534       O  0.58241377  0.67206723  0.56980442    -0.81900
O2535       O  0.64213580  0.67968050  0.55161880    -0.76700
O2536       O  0.61265439  0.76385382  0.54850653    -0.78500
O2537       O  0.59937048  0.68381076  0.96467846    -0.81200
C2538       C  0.66886711  0.70512735  0.55455073     0.99500
C2539       C  0.59885727  0.69381608  0.58735420     1.07000
O2540       O  0.61202612  0.71063138  0.52124027    -1.10200
O2541       O  0.54775332  0.68647433  0.00077903    -0.72600
O2542       O  0.55253834  0.64612440  0.51678191    -0.76100
O2543       O  0.67513087  0.73106577  0.54310409    -0.76800
C2544       C  0.53566882  0.65860830  0.51092188     0.98400
O2545       O  0.61567149  0.65970158  0.99512031    -0.74800
O2546       O  0.58762294  0.75400382  0.00735108    -0.80000
C2547       C  0.66304816  0.77438817  0.98478888     1.01100
C2548       C  0.59462638  0.76715269  0.53145578     1.07000
O2549       O  0.66624829  0.77601351  0.51112397    -0.75600
C2550       C  0.61127100  0.66598511  0.97035494     1.05300
Fe2551     Fe  0.59964421  0.94945756  0.55821015     1.65800
Fe2552     Fe  0.59425362  0.89229803  0.60233700     1.73200
Fe2553     Fe  0.64277874  0.91349363  0.54554034     1.54400
O2554       O  0.62318904  0.91960217  0.50920683    -0.79300
O2555       O  0.63872721  0.90283657  0.61750261    -0.77700
O2556       O  0.58276607  0.92747623  0.52055263    -0.81900
O2557       O  0.64272659  0.97959303  0.53857510    -0.76700
O2558       O  0.61259500  0.86563854  0.54142410    -0.78500
O2559       O  0.59973468  0.93233677  0.62549786    -0.81200
C2560       C  0.66935931  0.98083694  0.53553725     0.99500
C2561       C  0.59910089  0.92223900  0.50288932     1.07000
O2562       O  0.61239016  0.91833891  0.56890881    -1.10200
O2563       O  0.54806613  0.87810156  0.58926442    -0.72600
O2564       O  0.55327210  0.92362347  0.57379826    -0.76100
O2565       O  0.67551933  0.96111479  0.54697419    -0.76800
C2566       C  0.53619041  0.89413913  0.57939591     0.98400
O2567       O  0.61660397  0.97305965  0.59522872    -0.74800
O2568       O  0.58772746  0.85033411  0.58264645    -0.80000
C2569       C  0.66316859  0.90537132  0.60518280     1.01100
C2570       C  0.59462498  0.84422068  0.55849940     1.07000
O2571       O  0.66633158  0.90699442  0.57883470    -0.75600
C2572       C  0.61188413  0.96218536  0.61994766     1.05300
Fe2573     Fe  0.90057364  0.56771295  0.80829077     1.65800
Fe2574     Fe  0.90603206  0.62507263  0.85220667     1.73200
Fe2575     Fe  0.85730231  0.60352010  0.79553271     1.54400
O2576       O  0.87683740  0.59732575  0.75921983    -0.79300
O2577       O  0.86160592  0.61463494  0.86740978    -0.77700
O2578       O  0.91732937  0.58954293  0.77054435    -0.81900
O2579       O  0.85746763  0.53745283  0.78874297    -0.76700
O2580       O  0.88737584  0.65138704  0.79123469    -0.78500
O2581       O  0.90056702  0.58515303  0.87553172    -0.81200
C2582       C  0.83082759  0.53619546  0.78572623     0.99500
C2583       C  0.90095098  0.59474144  0.75289139     1.07000
O2584       O  0.88782072  0.59886155  0.81888372    -1.10200
O2585       O  0.95219212  0.63919527  0.83912624    -0.72600
O2586       O  0.94698561  0.59363674  0.82377425    -0.76100
O2587       O  0.82466683  0.55589141  0.79719872    -0.76800
C2588       C  0.96406507  0.62313312  0.82931774     0.98400
O2589       O  0.88371809  0.54429432  0.84541124    -0.74800
O2590       O  0.91254885  0.66691910  0.83231200    -0.80000
C2591       C  0.83707324  0.61190964  0.85511702     1.01100
C2592       C  0.90550500  0.67289836  0.80817351     1.07000
O2593       O  0.83379305  0.61008216  0.82878826    -0.75600
C2594       C  0.88842863  0.55528415  0.87009077     1.05300
Fe2595     Fe  0.94153324  0.85060039  0.97488154     1.65800
Fe2596     Fe  0.88416003  0.79874030  0.51902940     1.73200
Fe2597     Fe  0.90533023  0.77126419  0.96242200     1.54400
O2598       O  0.91176398  0.79692386  0.92598680    -0.79300
O2599       O  0.89449642  0.76479200  0.53434768    -0.77700
O2600       O  0.91976956  0.84534710  0.93710385    -0.81900
O2601       O  0.97166324  0.83759309  0.95552323    -0.76700
O2602       O  0.85750318  0.75354289  0.95813283    -0.78500
O2603       O  0.92420054  0.83336528  0.54223629    -0.81200
C2604       C  0.97276700  0.81212061  0.95265109     0.99500
C2605       C  0.91455408  0.82368204  0.91952827     1.07000
O2606       O  0.91024571  0.80663797  0.98564631    -1.10200
O2607       O  0.87014833  0.83076211  0.50584131    -0.72600
O2608       O  0.91567937  0.87115311  0.99013587    -0.76100
O2609       O  0.95290655  0.78622472  0.96413616    -0.76800
C2610       C  0.88620648  0.85868716  0.49581794     0.98400
O2611       O  0.96497197  0.85738491  0.51200134    -0.74800
O2612       O  0.84220157  0.76316602  0.49930183    -0.80000
C2613       C  0.89690509  0.74279589  0.52211035     1.01100
C2614       C  0.83608595  0.75008529  0.97517564     1.07000
O2615       O  0.89851934  0.74117612  0.49577552    -0.75600
C2616       C  0.95407453  0.85107295  0.53670867     1.05300
C2617       C  0.50268219  0.87788383  0.57164847    -0.10900
C2618       C  0.97761078  0.86474635  0.55884131    -0.12500
C2619       C  0.58405315  0.81190594  0.54985404    -0.10900
C2620       C  0.58406687  0.78885650  0.54008760    -0.12500
C2621       C  0.70987603  0.90614295  0.63483732    -0.10900
C2622       C  0.68853323  0.90612495  0.62162631    -0.12500
C2623       C  0.80333792  0.00145705  0.74241975    -0.10900
C2624       C  0.81049222  0.51600751  0.76405742    -0.12500
C2625       C  0.71980910  0.81233948  0.70704085    -0.10900
C2626       C  0.69663047  0.78920176  0.71670648    -0.12500
C2627       C  0.58815241  0.68819739  0.64087536    -0.10900
C2628       C  0.59096050  0.68815786  0.61607868    -0.12500
C2629       C  0.52264917  0.65254524  0.80877776    -0.10900
C2630       C  0.99757231  0.63937918  0.82157411    -0.12500
C2631       C  0.78058782  0.70508529  0.95689211    -0.10900
C2632       C  0.80374532  0.72824322  0.96655615    -0.12500
C2633       C  0.79037869  0.61114770  0.88474608    -0.10900
C2634       C  0.81172840  0.61116474  0.87156096    -0.12500
C2635       C  0.62103167  0.65212368  0.94834115    -0.10900
C2636       C  0.63283163  0.63886635  0.93560930    -0.12500
C2637       C  0.69692372  0.51582215  0.99236419    -0.10900
C2638       C  0.68973495  0.00113156  0.51393281    -0.12500
C2639       C  0.63303374  0.51075921  0.65486790    -0.10900
C2640       C  0.62145003  0.98570865  0.64205829    -0.12500
C2641       C  0.67959292  0.59664947  0.53271579    -0.10900
C2642       C  0.67959526  0.59948252  0.55751145    -0.12500
C2643       C  0.69672045  0.69787553  0.59753769    -0.10900
C2644       C  0.68933877  0.70524174  0.57602251    -0.12500
C2645       C  0.64358940  0.62972275  0.72523043    -0.10900
C2646       C  0.63034563  0.64154006  0.73796445    -0.12500
C2647       C  0.60278069  0.82049348  0.80192943    -0.10900
C2648       C  0.60271060  0.79912160  0.78874629    -0.12500
C2649       C  0.50761546  0.81913351  0.90950547    -0.10900
C2650       C  0.99300948  0.81188726  0.93112135    -0.12500
C2651       C  0.63082095  0.00620069  0.85196772    -0.10900
C2652       C  0.64391172  0.53125738  0.86477965    -0.12500
C2653       C  0.59120978  0.92023007  0.97417286    -0.10900
C2654       C  0.58843782  0.91752972  0.94935997    -0.12500
C2655       C  0.91626572  0.72831830  0.78966128    -0.10900
C2656       C  0.91613958  0.70518653  0.79939775    -0.12500
C2657       C  0.81190940  0.71845782  0.71840596    -0.10900
C2658       C  0.79050254  0.69703784  0.70524930    -0.12500
C2659       C  0.52345710  0.88741379  0.78126907    -0.10900
C2660       C  0.99844851  0.87576043  0.76838985    -0.12500
C2661       C  0.91004033  0.82952435  0.86594520    -0.10900
C2662       C  0.91270515  0.82947727  0.89076346    -0.12500
C2663       C  0.87939765  0.86532381  0.69830779    -0.10900
C2664       C  0.86755426  0.87856107  0.68560878    -0.12500
C2665       C  0.69687252  0.92482875  0.87408354    -0.10900
C2666       C  0.71995923  0.92486644  0.88383759    -0.12500
C2667       C  0.70990459  0.82037613  0.95515202    -0.10900
C2668       C  0.68848017  0.79897420  0.96830770    -0.12500
C2669       C  0.81157151  0.81261117  0.82608188    -0.10900
C2670       C  0.80413840  0.82004879  0.84753019    -0.12500
C2671       C  0.85674668  0.88773640  0.97532288    -0.10900
C2672       C  0.86995929  0.87587240  0.98803506    -0.12500
C2673       C  0.86725885  0.00687198  0.90517787    -0.10900
C2674       C  0.87885312  0.53187262  0.89229458    -0.12500
C2675       C  0.82103826  0.91852657  0.80765784    -0.10900
C2676       C  0.82097294  0.92121865  0.78284430    -0.12500
C2677       C  0.80327459  0.59245226  0.62376387    -0.10900
C2678       C  0.78024102  0.59250185  0.63354467    -0.12500
C2679       C  0.89753969  0.71818230  0.53862387    -0.10900
C2680       C  0.89748811  0.69682596  0.55183006    -0.12500
C2681       C  0.50215678  0.64156944  0.51869189    -0.10900
C2682       C  0.97709627  0.62993834  0.53149581    -0.12500
C2683       C  0.99256102  0.69826948  0.65957104    -0.10900
C2684       C  0.50727858  0.70554568  0.68112872    -0.12500
C2685       C  0.86949583  0.51117809  0.60196868    -0.10900
C2686       C  0.85640561  0.98611989  0.61478231    -0.12500
C2687       C  0.91158314  0.59964128  0.69936323    -0.10900
C2688       C  0.90883836  0.59682595  0.72417101    -0.12500
loop_ 
_geom_bond_atom_site_label_1 
_geom_bond_atom_site_label_2 
_geom_bond_distance 
_geom_bond_site_symmetry_2 
_ccdc_geom_bond_type 
Fe1          O17   2.044       .  S
Fe1           O7   2.073       .  S
Fe1          O14   2.081       .  S
Fe1           O6   2.044       .  S
Fe1          O12   1.960       .  S
Fe2           O5   2.077       .  S
Fe2           O9   2.130       .  S
Fe2          O13   2.077       .  S
Fe2          O18   2.114       .  S
Fe2          O12   1.951       .  S
Fe3          O21   2.073       .  S
Fe3           O8   2.033       .  S
Fe3          O15   2.038       .  S
Fe3           O4   2.073       .  S
Fe3          O12   1.953       .  S
O4           C11   1.271       .  A
O5           C19   1.271       .  A
O6           C11   1.267       .  A
O7           C10   1.268       .  A
O8           C20   1.262       .  A
O9           C22   1.284       .  A
C10          O15   1.259       .  A
C10         C331   1.426       .  S
C11         C335   1.417       .  S
O13          C16   1.266       .  A
O14          C16   1.267       .  A
C16         C333   1.450       .  S
O17          C22   1.269       .  A
O18          C20   1.279       .  A
C19          O21   1.269       .  A
C19         C328   1.443       .  S
C20         C325   1.440       .  S
C22         C330   1.449       .  S
Fe23         O39   2.045       .  S
Fe23         O29   2.073       .  S
Fe23         O36   2.082       .  S
Fe23         O28   2.044       .  S
Fe23         O34   1.961       .  S
Fe24         O27   2.076       .  S
Fe24         O31   2.130       .  S
Fe24         O35   2.076       .  S
Fe24         O40   2.113       .  S
Fe24         O34   1.952       .  S
Fe25         O43   2.072       .  S
Fe25         O30   2.033       .  S
Fe25         O37   2.038       .  S
Fe25         O26   2.071       .  S
Fe25         O34   1.954       .  S
O26          C33   1.271       .  A
O27          C41   1.271       .  A
O28          C33   1.267       .  A
O29          C32   1.268       .  A
O30          C42   1.262       .  A
O31          C44   1.284       .  A
C32          O37   1.259       .  A
C32         C318   1.426       .  S
C33         C323   1.417       .  S
O35          C38   1.266       .  A
O36          C38   1.267       .  A
C38         C321   1.450       .  S
O39          C44   1.269       .  A
O40          C42   1.279       .  A
C41          O43   1.268       .  A
C41         C315   1.442       .  S
C42         C314   1.440       .  S
C44         C319   1.450       .  S
Fe45         O61   2.045       .  S
Fe45         O51   2.073       .  S
Fe45         O58   2.081       .  S
Fe45         O50   2.044       .  S
Fe45         O56   1.961       .  S
Fe46         O49   2.076       .  S
Fe46         O53   2.130       .  S
Fe46         O57   2.076       .  S
Fe46         O62   2.114       .  S
Fe46         O56   1.952       .  S
Fe47         O65   2.073       .  S
Fe47         O52   2.033       .  S
Fe47         O59   2.038       .  S
Fe47         O48   2.071       .  S
Fe47         O56   1.954       .  S
O48          C55   1.271       .  A
O49          C63   1.271       .  A
O50          C55   1.267       .  A
O51          C54   1.268       .  A
O52          C64   1.262       .  A
O53          C66   1.284       .  A
C54          O59   1.259       .  A
C54         C317   1.426       .  S
C55         C309   1.417       .  S
O57          C60   1.266       .  A
O58          C60   1.267       .  A
C60         C308   1.450       .  S
O61          C66   1.269       .  A
O62          C64   1.279       .  A
C63          O65   1.268       .  A
C63         C305   1.443       .  S
C64         C303   1.440       .  S
C66         C311   1.450       .  S
Fe67         O83   2.044       .  S
Fe67         O73   2.074       .  S
Fe67         O80   2.081       .  S
Fe67         O72   2.044       .  S
Fe67         O78   1.961       .  S
Fe68         O71   2.077       .  S
Fe68         O75   2.129       .  S
Fe68         O79   2.077       .  S
Fe68         O84   2.113       .  S
Fe68         O78   1.952       .  S
Fe69         O87   2.072       .  S
Fe69         O74   2.034       .  S
Fe69         O81   2.038       .  S
Fe69         O70   2.072       .  S
Fe69         O78   1.953       .  S
O70          C77   1.271       .  A
O71          C85   1.271       .  A
O72          C77   1.267       .  A
O73          C76   1.267       .  A
O74          C86   1.262       .  A
O75          C88   1.284       .  A
C76          O81   1.259       .  A
C76         C297   1.426       .  S
C77         C302   1.417       .  S
O79          C82   1.266       .  A
O80          C82   1.267       .  A
C82         C299   1.450       .  S
O83          C88   1.269       .  A
O84          C86   1.279       .  A
C85          O87   1.268       .  A
C85         C295   1.442       .  S
C86         C313   1.440       .  S
C88         C307   1.449       .  S
Fe89        O105   2.045       .  S
Fe89         O95   2.074       .  S
Fe89        O102   2.082       .  S
Fe89         O94   2.044       .  S
Fe89        O100   1.961       .  S
Fe90         O93   2.076       .  S
Fe90         O97   2.131       .  S
Fe90        O101   2.076       .  S
Fe90        O106   2.114       .  S
Fe90        O100   1.952       .  S
Fe91        O109   2.072       .  S
Fe91         O96   2.033       .  S
Fe91        O103   2.038       .  S
Fe91         O92   2.071       .  S
Fe91        O100   1.954       .  S
O92          C99   1.271       .  A
O93         C107   1.271       .  A
O94          C99   1.267       .  A
O95          C98   1.268       .  A
O96         C108   1.262       .  A
O97         C110   1.284       .  A
C98         O103   1.259       .  A
C98         C291   1.426       .  S
C99         C290   1.417       .  S
O101        C104   1.266       .  A
O102        C104   1.267       .  A
C104        C287   1.450       .  S
O105        C110   1.269       .  A
O106        C108   1.279       .  A
C107        O109   1.268       .  A
C107        C306   1.443       .  S
C108        C326   1.440       .  S
C110        C293   1.450       .  S
Fe111       O127   2.044       .  S
Fe111       O117   2.075       .  S
Fe111       O124   2.083       .  S
Fe111       O116   2.043       .  S
Fe111       O122   1.961       .  S
Fe112       O115   2.077       .  S
Fe112       O119   2.129       .  S
Fe112       O123   2.077       .  S
Fe112       O128   2.112       .  S
Fe112       O122   1.952       .  S
Fe113       O131   2.072       .  S
Fe113       O118   2.034       .  S
Fe113       O125   2.038       .  S
Fe113       O114   2.072       .  S
Fe113       O122   1.953       .  S
O114        C457   1.271       .  A
O115        C129   1.271       .  A
O116        C457   1.267       .  A
O117        C120   1.268       .  A
O118        C130   1.262       .  A
O119        C132   1.284       .  A
C120        O125   1.259       .  A
C120        C285   1.426       .  S
C121        O450   1.271   1_554  A
C121        O452   1.267   1_554  A
C121        C289   1.417       .  S
O123        C126   1.267       .  A
O124        C126   1.267       .  A
C126        C284   1.451       .  S
O127        C132   1.269       .  A
O128        C130   1.279       .  A
C129        O131   1.268       .  A
C129        C281   1.442       .  S
C130        C279   1.440       .  S
C132        C300   1.449       .  S
Fe133       O149   2.044       .  S
Fe133       O139   2.074       .  S
Fe133       O146   2.083       .  S
Fe133       O138   2.043       .  S
Fe133       O144   1.961       .  S
Fe134       O137   2.077       .  S
Fe134       O141   2.129       .  S
Fe134       O145   2.077       .  S
Fe134       O150   2.112       .  S
Fe134       O144   1.952       .  S
Fe135       O153   2.072       .  S
Fe135       O140   2.034       .  S
Fe135       O147   2.038       .  S
Fe135       O136   2.072       .  S
Fe135       O144   1.953       .  S
O136        C143   1.271       .  A
O137        C151   1.271       .  A
O138        C143   1.267       .  A
O139        C142   1.268       .  A
O140        C152   1.262       .  A
O141        C154   1.284       .  A
C142        O147   1.259       .  A
C142        C332   1.426       .  S
C143        C275   1.417       .  S
O145        C148   1.267       .  A
O146        C148   1.267       .  A
C148        C294   1.451       .  S
O149        C154   1.269       .  A
O150        C152   1.279       .  A
C151        O153   1.268       .  A
C151        C296   1.442       .  S
C152        C274   1.440       .  S
C154        C277   1.449       .  S
Fe155       O171   2.044       .  S
Fe155       O161   2.075       .  S
Fe155       O168   2.083       .  S
Fe155       O160   2.044       .  S
Fe155       O166   1.961       .  S
Fe156       O159   2.077       .  S
Fe156       O163   2.128       .  S
Fe156       O167   2.077       .  S
Fe156       O172   2.113       .  S
Fe156       O166   1.952       .  S
Fe157       O175   2.073       .  S
Fe157       O162   2.034       .  S
Fe157       O169   2.037       .  S
Fe157       O158   2.073       .  S
Fe157       O166   1.953       .  S
O158        C165   1.271       .  A
O159        C173   1.271       .  A
O160        C165   1.267       .  A
O161        C164   1.268       .  A
O162        C174   1.262       .  A
O163        C176   1.284       .  A
C164        O169   1.259       .  A
C164        C271   1.426       .  S
C165        C324   1.418       .  S
O167        C170   1.267       .  A
O168        C170   1.267       .  A
C170        C312   1.451       .  S
O171        C176   1.269       .  A
O172        C174   1.279       .  A
C173        O175   1.268       .  A
C173        C269   1.443       .  S
C174        C273   1.440       .  S
C176        C334   1.449       .  S
Fe177       O183   2.074       .  S
Fe177       O190   2.082       .  S
Fe177       O182   2.044       .  S
Fe177       O529   2.045   1_554  S
Fe177       O188   1.961       .  S
Fe178       O181   2.076       .  S
Fe178       O185   2.130       .  S
Fe178       O189   2.076       .  S
Fe178       O194   2.114       .  S
Fe178       O524   1.952       .  S
Fe179       O197   2.072       .  S
Fe179       O184   2.033       .  S
Fe179       O191   2.038       .  S
Fe179       O180   2.071       .  S
Fe179       O188   1.954       .  S
O180        C187   1.271       .  A
O181        C195   1.271       .  A
O182        C187   1.267       .  A
O183        C186   1.268       .  A
O184        C196   1.262       .  A
O185        C198   1.284       .  A
C186        O191   1.259       .  A
C186        C292   1.426       .  S
C187        C276   1.417       .  S
O188       Fe514   1.952   1_554  S
O189        C528   1.266       .  A
O190        C192   1.267       .  A
C192        O525   1.266       .  A
C192        C329   1.450       .  S
O193       Fe513   2.045       .  S
O193        C198   1.269       .  A
O194        C532   1.279       .  A
C195        O533   1.268       .  A
C195        C316   1.442       .  S
C196        O530   1.279       .  A
C196        C268   1.440       .  S
O197        C531   1.268   1_554  A
C198        C283   1.450       .  S
Fe199       O215   2.044       .  S
Fe199       O205   2.073       .  S
Fe199       O212   2.082       .  S
Fe199       O204   2.044       .  S
Fe199       O210   1.961       .  S
Fe200       O203   2.077       .  S
Fe200       O207   2.130       .  S
Fe200       O211   2.077       .  S
Fe200       O216   2.114       .  S
Fe200       O210   1.952       .  S
Fe201       O219   2.074       .  S
Fe201       O206   2.033       .  S
Fe201       O213   2.038       .  S
Fe201       O202   2.072       .  S
Fe201       O210   1.953       .  S
O202        C209   1.271       .  A
O203        C217   1.271       .  A
O204        C209   1.267       .  A
O205        C208   1.268       .  A
O206        C218   1.262       .  A
O207        C220   1.284       .  A
C208        O213   1.259       .  A
C208        C286   1.426       .  S
C209        C637   1.417   1_554  S
O211        C214   1.266       .  A
O212        C214   1.267       .  A
C214        C265   1.450       .  S
O215        C220   1.269       .  A
O216        C218   1.279       .  A
C217        O219   1.269       .  A
C217        C270   1.443       .  S
C218        C267   1.440       .  S
C220        C288   1.450       .  S
Fe221       O237   2.044       .  S
Fe221       O227   2.073       .  S
Fe221       O234   2.082       .  S
Fe221       O226   2.044       .  S
Fe221       O232   1.961       .  S
Fe222       O225   2.077       .  S
Fe222       O229   2.130       .  S
Fe222       O233   2.076       .  S
Fe222       O238   2.113       .  S
Fe222       O232   1.951       .  S
Fe223       O241   2.072       .  S
Fe223       O228   2.034       .  S
Fe223       O235   2.038       .  S
Fe223       O224   2.072       .  S
Fe223       O232   1.953       .  S
O224        C231   1.271       .  A
O225        C239   1.271       .  A
O226        C231   1.267       .  A
O227        C230   1.268       .  A
O228        C240   1.262       .  A
O229        C242   1.284       .  A
C230        O235   1.259       .  A
C230        C272   1.426       .  S
C231        C336   1.417       .  S
O233        C236   1.266       .  A
O234        C236   1.267       .  A
C236        C278   1.450       .  S
O237        C242   1.269       .  A
O238        C240   1.279       .  A
C239        O241   1.268       .  A
C239        C282   1.442       .  S
C240        C304   1.440       .  S
C242        C322   1.449       .  S
Fe243       O249   2.074       .  S
Fe243       O256   2.083       .  S
Fe243       O248   2.044       .  S
Fe243       O595   2.044       .  S
Fe243       O254   1.961       .  S
Fe244       O247   2.077       .  S
Fe244       O251   2.129       .  S
Fe244       O255   2.077       .  S
Fe244       O260   2.113   1_554  S
Fe244       O590   1.952   1_554  S
Fe245       O250   2.034       .  S
Fe245       O257   2.038       .  S
Fe245       O246   2.072       .  S
Fe245       O599   2.073       .  S
Fe245       O254   1.953       .  S
O246        C253   1.271       .  A
O247        C261   1.271       .  A
O248        C253   1.267       .  A
O249        C252   1.268       .  A
O250        C262   1.262       .  A
O251        C264   1.284       .  A
C252        O257   1.259       .  A
C252        C298   1.426       .  S
C253        C310   1.418       .  S
O254       Fe580   1.952       .  S
O255        C258   1.267   1_554  A
O256        C594   1.267       .  A
C258        O592   1.267       .  A
C258        C656   1.451       .  S
O259       Fe579   2.044   1_554  S
O259        C264   1.269       .  A
O260        C598   1.279       .  A
C261        O263   1.268   1_554  A
C261        C327   1.443       .  S
C262        O596   1.279       .  A
C262        C280   1.440       .  S
O263       Fe581   2.073       .  S
C264        C266   1.449       .  S
C265       C1610   1.215   1_455  T
C266       C1609   1.215       .  T
C267        C268   1.210       .  T
C269        C270   1.211       .  T
C271        C944   1.202       .  T
C272        C943   1.202       .  T
C273        C274   1.209       .  T
C275        C276   1.195       .  T
C277       C1622   1.215   1_455  T
C278       C1621   1.215       .  T
C279        C280   1.209       .  T
C281        C282   1.210       .  T
C283        C284   1.216       .  T
C285       C1294   1.202       .  T
C286       C1293   1.202   1_554  T
C287        C960   1.215   1_545  T
C288        C959   1.215       .  T
C289        C290   1.195       .  T
C291        C292   1.202       .  T
C293        C294   1.216       .  T
C295        C296   1.210       .  T
C297       C1642   1.202   1_455  T
C298       C1641   1.202       .  T
C299        C972   1.215       .  T
C300        C971   1.215       .  T
C301        C545   1.417       .  S
C301        C302   1.196       .  T
C303        C304   1.210       .  T
C305        C306   1.210       .  T
C307       C1652   1.215   1_455  T
C308       C1651   1.215       .  T
C309        C310   1.196       .  T
C311        C312   1.215       .  T
C313        C314   1.210       .  T
C315        C316   1.210       .  T
C317        C318   1.202       .  T
C319        C320   1.216       .  T
C320        C594   1.451       .  S
C321        C994   1.215       .  T
C322        C993   1.215       .  T
C323        C324   1.196       .  T
C325        C326   1.210       .  T
C327        C328   1.211       .  T
C329       C1674   1.215   1_455  T
C330       C1673   1.215       .  T
C331       C1676   1.202       .  T
C332       C1675   1.202   1_455  T
C333       C1006   1.215   1_545  T
C334       C1005   1.215       .  T
C335        C336   1.196       .  T
Fe337       O353   2.044       .  S
Fe337       O343   2.073       .  S
Fe337       O350   2.081       .  S
Fe337       O342   2.044       .  S
Fe337       O348   1.960       .  S
Fe338       O341   2.077       .  S
Fe338       O345   2.130       .  S
Fe338       O349   2.077       .  S
Fe338       O354   2.114       .  S
Fe338       O348   1.951       .  S
Fe339       O357   2.073       .  S
Fe339       O344   2.033       .  S
Fe339       O351   2.038       .  S
Fe339       O340   2.073       .  S
Fe339       O348   1.953       .  S
O340        C347   1.271       .  A
O341        C355   1.271       .  A
O342        C347   1.267       .  A
O343        C346   1.268       .  A
O344        C356   1.262       .  A
O345        C358   1.284       .  A
C346        O351   1.259       .  A
C346        C667   1.426       .  S
C347        C671   1.417       .  S
O349        C352   1.266       .  A
O350        C352   1.267       .  A
C352        C669   1.450       .  S
O353        C358   1.269       .  A
O354        C356   1.279       .  A
C355        O357   1.269       .  A
C355        C664   1.443       .  S
C356        C661   1.440       .  S
C358        C666   1.449       .  S
Fe359       O375   2.045       .  S
Fe359       O365   2.073       .  S
Fe359       O372   2.082       .  S
Fe359       O364   2.044       .  S
Fe359       O370   1.961       .  S
Fe360       O363   2.076       .  S
Fe360       O367   2.130       .  S
Fe360       O371   2.076       .  S
Fe360       O376   2.113       .  S
Fe360       O370   1.952       .  S
Fe361       O379   2.072       .  S
Fe361       O366   2.033       .  S
Fe361       O373   2.038       .  S
Fe361       O362   2.071       .  S
Fe361       O370   1.954       .  S
O362        C369   1.271       .  A
O363        C377   1.271       .  A
O364        C369   1.267       .  A
O365        C368   1.268       .  A
O366        C378   1.262       .  A
O367        C380   1.284       .  A
C368        O373   1.259       .  A
C368        C654   1.426       .  S
C369        C659   1.417       .  S
O371        C374   1.266       .  A
O372        C374   1.267       .  A
C374        C657   1.450       .  S
O375        C380   1.269       .  A
O376        C378   1.279       .  A
C377        O379   1.268       .  A
C377        C651   1.442       .  S
C378        C650   1.440       .  S
C380        C655   1.450       .  S
Fe381       O397   2.045       .  S
Fe381       O387   2.073       .  S
Fe381       O394   2.081       .  S
Fe381       O386   2.044       .  S
Fe381       O392   1.961       .  S
Fe382       O385   2.076       .  S
Fe382       O389   2.130       .  S
Fe382       O393   2.076       .  S
Fe382       O398   2.114       .  S
Fe382       O392   1.952       .  S
Fe383       O401   2.073       .  S
Fe383       O388   2.033       .  S
Fe383       O395   2.038       .  S
Fe383       O384   2.071       .  S
Fe383       O392   1.954       .  S
O384        C391   1.271       .  A
O385        C399   1.271       .  A
O386        C391   1.267       .  A
O387        C390   1.268       .  A
O388        C400   1.262       .  A
O389        C402   1.284       .  A
C390        O395   1.259       .  A
C390        C653   1.426       .  S
C391        C645   1.417       .  S
O393        C396   1.266       .  A
O394        C396   1.267       .  A
C396        C644   1.450       .  S
O397        C402   1.269       .  A
O398        C400   1.279       .  A
C399        O401   1.268       .  A
C399        C641   1.442       .  S
C400        C639   1.440       .  S
C402        C647   1.450       .  S
Fe403       O419   2.044       .  S
Fe403       O409   2.074       .  S
Fe403       O416   2.081       .  S
Fe403       O408   2.044       .  S
Fe403       O414   1.961       .  S
Fe404       O407   2.077       .  S
Fe404       O411   2.129       .  S
Fe404       O415   2.077       .  S
Fe404       O420   2.113       .  S
Fe404       O414   1.952       .  S
Fe405       O423   2.072       .  S
Fe405       O410   2.034       .  S
Fe405       O417   2.038       .  S
Fe405       O406   2.072       .  S
Fe405       O414   1.953       .  S
O406        C413   1.271       .  A
O407        C421   1.271       .  A
O408        C413   1.267       .  A
O409        C412   1.267       .  A
O410        C422   1.262       .  A
O411        C424   1.284       .  A
C412        O417   1.259       .  A
C412        C633   1.426       .  S
C413        C638   1.417       .  S
O415        C418   1.266       .  A
O416        C418   1.267       .  A
C418        C635   1.450       .  S
O419        C424   1.269       .  A
O420        C422   1.279       .  A
C421        O423   1.268       .  A
C421        C631   1.442       .  S
C422        C649   1.440       .  S
C424        C643   1.449       .  S
Fe425       O441   2.045       .  S
Fe425       O431   2.074       .  S
Fe425       O438   2.082       .  S
Fe425       O430   2.044       .  S
Fe425       O436   1.961       .  S
Fe426       O429   2.076       .  S
Fe426       O433   2.131       .  S
Fe426       O437   2.076       .  S
Fe426       O442   2.114       .  S
Fe426       O436   1.952       .  S
Fe427       O445   2.072       .  S
Fe427       O432   2.033       .  S
Fe427       O439   2.038       .  S
Fe427       O428   2.071       .  S
Fe427       O436   1.954       .  S
O428        C435   1.271       .  A
O429        C443   1.271       .  A
O430        C435   1.267       .  A
O431        C434   1.268       .  A
O432        C444   1.262       .  A
O433        C446   1.284       .  A
C434        O439   1.259       .  A
C434        C627   1.426       .  S
C435        C626   1.417       .  S
O437        C440   1.266       .  A
O438        C440   1.267       .  A
C440        C623   1.450       .  S
O441        C446   1.269       .  A
O442        C444   1.279       .  A
C443        O445   1.268       .  A
C443        C642   1.442       .  S
C444        C662   1.440       .  S
C446        C629   1.450       .  S
Fe447       O463   2.044       .  S
Fe447       O453   2.075       .  S
Fe447       O460   2.083       .  S
Fe447       O452   2.043       .  S
Fe447       O458   1.961       .  S
Fe448       O451   2.077       .  S
Fe448       O455   2.129       .  S
Fe448       O459   2.077       .  S
Fe448       O464   2.112       .  S
Fe448       O458   1.952       .  S
Fe449       O467   2.072       .  S
Fe449       O454   2.034       .  S
Fe449       O461   2.038       .  S
Fe449       O450   2.072       .  S
Fe449       O458   1.953       .  S
O451        C465   1.271       .  A
O453        C456   1.268       .  A
O454        C466   1.262       .  A
O455        C468   1.284       .  A
C456        O461   1.259       .  A
C456        C621   1.426       .  S
C457        C625   1.417       .  S
O459        C462   1.267       .  A
O460        C462   1.267       .  A
C462        C620   1.451       .  S
O463        C468   1.269       .  A
O464        C466   1.279       .  A
C465        O467   1.268       .  A
C465        C617   1.442       .  S
C466        C615   1.440       .  S
C468        C636   1.449       .  S
Fe469       O485   2.044       .  S
Fe469       O475   2.074       .  S
Fe469       O482   2.083       .  S
Fe469       O474   2.043       .  S
Fe469       O480   1.961       .  S
Fe470       O473   2.077       .  S
Fe470       O477   2.129       .  S
Fe470       O481   2.077       .  S
Fe470       O486   2.112       .  S
Fe470       O480   1.952       .  S
Fe471       O489   2.072       .  S
Fe471       O476   2.034       .  S
Fe471       O483   2.038       .  S
Fe471       O472   2.072       .  S
Fe471       O480   1.953       .  S
O472        C479   1.271       .  A
O473        C487   1.271       .  A
O474        C479   1.267       .  A
O475        C478   1.268       .  A
O476        C488   1.262       .  A
O477        C490   1.284       .  A
C478        O483   1.259       .  A
C478        C668   1.426       .  S
C479        C611   1.417       .  S
O481        C484   1.267       .  A
O482        C484   1.267       .  A
C484        C630   1.451       .  S
O485        C490   1.269       .  A
O486        C488   1.279       .  A
C487        O489   1.268       .  A
C487        C632   1.442       .  S
C488        C610   1.440       .  S
C490        C613   1.449       .  S
Fe491       O507   2.044       .  S
Fe491       O497   2.075       .  S
Fe491       O504   2.083       .  S
Fe491       O496   2.044       .  S
Fe491       O502   1.961       .  S
Fe492       O495   2.077       .  S
Fe492       O499   2.128       .  S
Fe492       O503   2.077       .  S
Fe492       O508   2.113       .  S
Fe492       O502   1.952       .  S
Fe493       O511   2.073       .  S
Fe493       O498   2.034       .  S
Fe493       O505   2.037       .  S
Fe493       O494   2.073       .  S
Fe493       O502   1.953       .  S
O494        C501   1.271       .  A
O495        C509   1.271       .  A
O496        C501   1.267       .  A
O497        C500   1.268       .  A
O498        C510   1.262       .  A
O499        C512   1.284       .  A
C500        O505   1.259       .  A
C500        C607   1.426       .  S
C501        C660   1.418       .  S
O503        C506   1.267       .  A
O504        C506   1.267       .  A
C506        C648   1.451       .  S
O507        C512   1.269       .  A
O508        C510   1.279       .  A
C509        O511   1.268       .  A
C509        C605   1.443       .  S
C510        C609   1.440       .  S
C512        C670   1.449       .  S
Fe513       O519   2.074       .  S
Fe513       O526   2.082       .  S
Fe513       O518   2.044       .  S
Fe513       O524   1.961       .  S
Fe514       O517   2.076       .  S
Fe514       O521   2.130       .  S
Fe514       O525   2.076   1_556  S
Fe514       O530   2.114   1_556  S
Fe515       O533   2.072       .  S
Fe515       O520   2.033       .  S
Fe515       O527   2.038       .  S
Fe515       O516   2.071       .  S
Fe515       O524   1.954       .  S
O516        C523   1.271       .  A
O517        C531   1.271       .  A
O518        C523   1.267       .  A
O519        C522   1.268       .  A
O520        C532   1.262       .  A
O521        C534   1.284       .  A
C522        O527   1.259       .  A
C522        C628   1.426       .  S
C523        C612   1.417       .  S
O526        C528   1.267       .  A
C528        C665   1.450       .  S
O529        C534   1.269       .  A
C531        C652   1.442       .  S
C532        C604   1.440       .  S
C534        C619   1.450       .  S
Fe535       O551   2.044       .  S
Fe535       O541   2.073       .  S
Fe535       O548   2.082       .  S
Fe535       O540   2.044       .  S
Fe535       O546   1.961       .  S
Fe536       O539   2.077       .  S
Fe536       O543   2.130       .  S
Fe536       O547   2.077       .  S
Fe536       O552   2.114       .  S
Fe536       O546   1.952       .  S
Fe537       O555   2.074       .  S
Fe537       O542   2.033       .  S
Fe537       O549   2.038       .  S
Fe537       O538   2.072       .  S
Fe537       O546   1.953       .  S
O538        C545   1.271       .  A
O539        C553   1.271       .  A
O540        C545   1.267       .  A
O541        C544   1.268       .  A
O542        C554   1.262       .  A
O543        C556   1.284       .  A
C544        O549   1.259       .  A
C544        C622   1.426       .  S
O547        C550   1.266       .  A
O548        C550   1.267       .  A
C550        C601   1.450       .  S
O551        C556   1.269       .  A
O552        C554   1.279       .  A
C553        O555   1.269       .  A
C553        C606   1.443       .  S
C554        C603   1.440       .  S
C556        C624   1.450       .  S
Fe557       O573   2.044       .  S
Fe557       O563   2.073       .  S
Fe557       O570   2.082       .  S
Fe557       O562   2.044       .  S
Fe557       O568   1.961       .  S
Fe558       O561   2.077       .  S
Fe558       O565   2.130       .  S
Fe558       O569   2.076       .  S
Fe558       O574   2.113       .  S
Fe558       O568   1.951       .  S
Fe559       O577   2.072       .  S
Fe559       O564   2.034       .  S
Fe559       O571   2.038       .  S
Fe559       O560   2.072       .  S
Fe559       O568   1.953       .  S
O560        C567   1.271       .  A
O561        C575   1.271       .  A
O562        C567   1.267       .  A
O563        C566   1.268       .  A
O564        C576   1.262       .  A
O565        C578   1.284       .  A
C566        O571   1.259       .  A
C566        C608   1.426       .  S
C567        C672   1.417       .  S
O569        C572   1.266       .  A
O570        C572   1.267       .  A
C572        C614   1.450       .  S
O573        C578   1.269       .  A
O574        C576   1.279       .  A
C575        O577   1.268       .  A
C575        C618   1.442       .  S
C576        C640   1.440       .  S
C578        C658   1.449       .  S
Fe579       O585   2.074       .  S
Fe579       O592   2.083       .  S
Fe579       O584   2.044       .  S
Fe579       O590   1.961       .  S
Fe580       O583   2.077       .  S
Fe580       O587   2.129       .  S
Fe580       O591   2.077       .  S
Fe580       O596   2.113       .  S
Fe581       O586   2.034       .  S
Fe581       O593   2.038       .  S
Fe581       O582   2.072       .  S
Fe581       O590   1.953       .  S
O582        C589   1.271       .  A
O583        C597   1.271       .  A
O584        C589   1.267       .  A
O585        C588   1.268       .  A
O586        C598   1.262       .  A
O587        C600   1.284       .  A
C588        O593   1.259       .  A
C588        C634   1.426       .  S
C589        C646   1.418       .  S
O591        C594   1.267       .  A
O595        C600   1.269       .  A
C597        O599   1.268       .  A
C597        C663   1.443       .  S
C598        C616   1.440       .  S
C600        C602   1.449       .  S
C601       C1946   1.215   1_455  T
C602       C1945   1.215       .  T
C603        C604   1.210       .  T
C605        C606   1.211       .  T
C607       C1280   1.202       .  T
C608       C1279   1.202       .  T
C609        C610   1.209       .  T
C611        C612   1.195       .  T
C613       C1958   1.215   1_455  T
C614       C1957   1.215       .  T
C615        C616   1.210       .  T
C617        C618   1.210       .  T
C619        C620   1.216       .  T
C621        C958   1.202   1_556  T
C622        C957   1.202       .  T
C623       C1296   1.215   1_545  T
C624       C1295   1.215       .  T
C625        C626   1.195       .  T
C627        C628   1.202       .  T
C629        C630   1.216       .  T
C631        C632   1.210       .  T
C633       C1978   1.202   1_455  T
C634       C1977   1.202       .  T
C635       C1308   1.215       .  T
C636       C1307   1.215       .  T
C637        C638   1.196       .  T
C639        C640   1.210       .  T
C641        C642   1.210       .  T
C643       C1988   1.215   1_455  T
C644       C1987   1.215       .  T
C645        C646   1.196       .  T
C647        C648   1.215       .  T
C649        C650   1.210       .  T
C651        C652   1.210       .  T
C653        C654   1.202       .  T
C655        C656   1.216       .  T
C657       C1330   1.215       .  T
C658       C1329   1.215       .  T
C659        C660   1.196       .  T
C661        C662   1.210       .  T
C663        C664   1.211       .  T
C665       C2010   1.215   1_455  T
C666       C2009   1.215       .  T
C667       C2012   1.202       .  T
C668       C2011   1.202   1_455  T
C669       C1342   1.215   1_545  T
C670       C1341   1.215       .  T
C671        C672   1.196       .  T
Fe673       O689   2.044       .  S
Fe673       O679   2.073       .  S
Fe673       O686   2.081       .  S
Fe673       O678   2.044       .  S
Fe673       O684   1.960       .  S
Fe674       O677   2.077       .  S
Fe674       O681   2.130       .  S
Fe674       O685   2.077       .  S
Fe674       O690   2.114       .  S
Fe674       O684   1.951       .  S
Fe675       O693   2.073       .  S
Fe675       O680   2.033       .  S
Fe675       O687   2.038       .  S
Fe675       O676   2.073       .  S
Fe675       O684   1.953       .  S
O676        C683   1.271       .  A
O677        C691   1.271       .  A
O678        C683   1.267       .  A
O679        C682   1.268       .  A
O680        C692   1.262       .  A
O681        C694   1.284       .  A
C682        O687   1.259       .  A
C682       C1003   1.426       .  S
C683       C1007   1.417       .  S
O685        C688   1.266       .  A
O686        C688   1.267       .  A
C688       C1005   1.450       .  S
O689        C694   1.269       .  A
O690        C692   1.279       .  A
C691        O693   1.269       .  A
C691       C1000   1.443       .  S
C692        C997   1.440       .  S
C694       C1002   1.449       .  S
Fe695       O711   2.045       .  S
Fe695       O701   2.073       .  S
Fe695       O708   2.082       .  S
Fe695       O700   2.044       .  S
Fe695       O706   1.961       .  S
Fe696       O699   2.076       .  S
Fe696       O703   2.130       .  S
Fe696       O707   2.076       .  S
Fe696       O712   2.113       .  S
Fe696       O706   1.952       .  S
Fe697       O715   2.072       .  S
Fe697       O702   2.033       .  S
Fe697       O709   2.038       .  S
Fe697       O698   2.071       .  S
Fe697       O706   1.954       .  S
O698        C705   1.271       .  A
O699        C713   1.271       .  A
O700        C705   1.267       .  A
O701        C704   1.268       .  A
O702        C714   1.262       .  A
O703        C716   1.284       .  A
C704        O709   1.259       .  A
C704        C990   1.426       .  S
C705        C995   1.417       .  S
O707        C710   1.266       .  A
O708        C710   1.267       .  A
C710        C993   1.450   1_565  S
O711        C716   1.269       .  A
O712        C714   1.279       .  A
C713        O715   1.268       .  A
C713        C987   1.442       .  S
C714        C986   1.440       .  S
C716        C991   1.450       .  S
Fe717       O733   2.045       .  S
Fe717       O723   2.073       .  S
Fe717       O730   2.081       .  S
Fe717       O722   2.044       .  S
Fe717       O728   1.961       .  S
Fe718       O721   2.076       .  S
Fe718       O725   2.130       .  S
Fe718       O729   2.076       .  S
Fe718       O734   2.114       .  S
Fe718       O728   1.952       .  S
Fe719       O737   2.073       .  S
Fe719       O724   2.033       .  S
Fe719       O731   2.038       .  S
Fe719       O720   2.071       .  S
Fe719       O728   1.954       .  S
O720        C727   1.271       .  A
O721        C735   1.271       .  A
O722        C727   1.267       .  A
O723        C726   1.268       .  A
O724        C736   1.262       .  A
O725        C738   1.284       .  A
C726        O731   1.259       .  A
C726        C989   1.426       .  S
C727        C981   1.417       .  S
O729        C732   1.266       .  A
O730        C732   1.267       .  A
C732        C980   1.450       .  S
O733        C738   1.269       .  A
O734        C736   1.279       .  A
C735        O737   1.268       .  A
C735        C977   1.443       .  S
C736        C975   1.440       .  S
C738        C983   1.450       .  S
Fe739       O755   2.044       .  S
Fe739       O745   2.074       .  S
Fe739       O752   2.081       .  S
Fe739       O744   2.044       .  S
Fe739       O750   1.961       .  S
Fe740       O743   2.077       .  S
Fe740       O747   2.129       .  S
Fe740       O751   2.077       .  S
Fe740       O756   2.113       .  S
Fe740       O750   1.952       .  S
Fe741       O759   2.072       .  S
Fe741       O746   2.034       .  S
Fe741       O753   2.038       .  S
Fe741       O742   2.072       .  S
Fe741       O750   1.953       .  S
O742        C749   1.271       .  A
O743        C757   1.271       .  A
O744        C749   1.267       .  A
O745        C748   1.267       .  A
O746        C758   1.262       .  A
O747        C760   1.284       .  A
C748        O753   1.259       .  A
C748        C969   1.426       .  S
C749        C974   1.417       .  S
O751        C754   1.266       .  A
O752        C754   1.267       .  A
C754        C971   1.450   1_565  S
O755        C760   1.269       .  A
O756        C758   1.279       .  A
C757        O759   1.268       .  A
C757        C967   1.442       .  S
C758        C985   1.440       .  S
C760        C979   1.449       .  S
Fe761       O777   2.045       .  S
Fe761       O767   2.074       .  S
Fe761       O774   2.082       .  S
Fe761       O766   2.044       .  S
Fe761       O772   1.961       .  S
Fe762       O765   2.076       .  S
Fe762       O769   2.131       .  S
Fe762       O773   2.076       .  S
Fe762       O778   2.114       .  S
Fe762       O772   1.952       .  S
Fe763       O781   2.072       .  S
Fe763       O768   2.033       .  S
Fe763       O775   2.038       .  S
Fe763       O764   2.071       .  S
Fe763       O772   1.954       .  S
O764        C771   1.271       .  A
O765        C779   1.271       .  A
O766        C771   1.267       .  A
O767        C770   1.268       .  A
O768        C780   1.262       .  A
O769        C782   1.284       .  A
C770        O775   1.259       .  A
C770        C963   1.426       .  S
C771        C962   1.417       .  S
O773        C776   1.266       .  A
O774        C776   1.267       .  A
C776        C959   1.450       .  S
O777        C782   1.269       .  A
O778        C780   1.279       .  A
C779        O781   1.268       .  A
C779        C978   1.443       .  S
C780        C998   1.440       .  S
C782        C965   1.450       .  S
Fe783       O799   2.044       .  S
Fe783       O789   2.075       .  S
Fe783       O796   2.083       .  S
Fe783       O788   2.043       .  S
Fe783       O794   1.961       .  S
Fe784       O787   2.077       .  S
Fe784       O791   2.129       .  S
Fe784       O795   2.077       .  S
Fe784       O800   2.112       .  S
Fe784       O794   1.952       .  S
Fe785       O803   2.072       .  S
Fe785       O790   2.034       .  S
Fe785       O797   2.038       .  S
Fe785       O786   2.072       .  S
Fe785       O794   1.953       .  S
O786       C1129   1.271       .  A
O787        C801   1.271       .  A
O788       C1129   1.267       .  A
O789        C792   1.268       .  A
O790        C802   1.262       .  A
O791        C804   1.284       .  A
C792        O797   1.259       .  A
C792        C957   1.426       .  S
C793       O1122   1.271   1_554  A
C793       O1124   1.267   1_554  A
C793        C961   1.417       .  S
O795        C798   1.267       .  A
O796        C798   1.267       .  A
C798        C956   1.451       .  S
O799        C804   1.269       .  A
O800        C802   1.279       .  A
C801        O803   1.268       .  A
C801        C953   1.442       .  S
C802        C951   1.440       .  S
C804        C972   1.449       .  S
Fe805       O821   2.044       .  S
Fe805       O811   2.074       .  S
Fe805       O818   2.083       .  S
Fe805       O810   2.043       .  S
Fe805       O816   1.961       .  S
Fe806       O809   2.077       .  S
Fe806       O813   2.129       .  S
Fe806       O817   2.077       .  S
Fe806       O822   2.112       .  S
Fe806       O816   1.952       .  S
Fe807       O825   2.072       .  S
Fe807       O812   2.034       .  S
Fe807       O819   2.038       .  S
Fe807       O808   2.072       .  S
Fe807       O816   1.953       .  S
O808        C815   1.271       .  A
O809        C823   1.271       .  A
O810        C815   1.267       .  A
O811        C814   1.268       .  A
O812        C824   1.262       .  A
O813        C826   1.284       .  A
C814        O819   1.259       .  A
C814       C1004   1.426       .  S
C815        C947   1.417       .  S
O817        C820   1.267       .  A
O818        C820   1.267       .  A
C820        C966   1.451       .  S
O821        C826   1.269       .  A
O822        C824   1.279       .  A
C823        O825   1.268       .  A
C823        C968   1.442       .  S
C824        C946   1.440       .  S
C826        C949   1.449       .  S
Fe827       O843   2.044       .  S
Fe827       O833   2.075       .  S
Fe827       O840   2.083       .  S
Fe827       O832   2.044       .  S
Fe827       O838   1.961       .  S
Fe828       O831   2.077       .  S
Fe828       O835   2.128       .  S
Fe828       O839   2.077       .  S
Fe828       O844   2.113       .  S
Fe828       O838   1.952       .  S
Fe829       O847   2.073       .  S
Fe829       O834   2.034       .  S
Fe829       O841   2.037       .  S
Fe829       O830   2.073       .  S
Fe829       O838   1.953       .  S
O830        C837   1.271       .  A
O831        C845   1.271       .  A
O832        C837   1.267       .  A
O833        C836   1.268       .  A
O834        C846   1.262       .  A
O835        C848   1.284       .  A
C836        O841   1.259       .  A
C836        C943   1.426   1_565  S
C837        C996   1.418       .  S
O839        C842   1.267       .  A
O840        C842   1.267       .  A
C842        C984   1.451       .  S
O843        C848   1.269       .  A
O844        C846   1.279       .  A
C845        O847   1.268       .  A
C845        C941   1.443       .  S
C846        C945   1.440       .  S
C848       C1006   1.449       .  S
Fe849      O1201   2.045   1_554  S
Fe849       O855   2.074       .  S
Fe849       O862   2.082       .  S
Fe849       O854   2.044       .  S
Fe849       O860   1.961       .  S
Fe850       O853   2.076       .  S
Fe850       O857   2.130       .  S
Fe850       O861   2.076       .  S
Fe850       O866   2.114       .  S
Fe850      O1196   1.952       .  S
Fe851       O869   2.072       .  S
Fe851       O856   2.033       .  S
Fe851       O863   2.038       .  S
Fe851       O852   2.071       .  S
Fe851       O860   1.954       .  S
O852        C859   1.271       .  A
O853        C867   1.271       .  A
O854        C859   1.267       .  A
O855        C858   1.268       .  A
O856        C868   1.262       .  A
O857        C870   1.284       .  A
C858        O863   1.259       .  A
C858        C964   1.426       .  S
C859        C948   1.417       .  S
O860      Fe1186   1.952   1_554  S
O861       C1200   1.266       .  A
O862        C864   1.267       .  A
C864       O1197   1.266       .  A
C864       C1001   1.450       .  S
O865      Fe1185   2.045       .  S
O865        C870   1.269       .  A
O866       C1204   1.279       .  A
C867       O1205   1.268       .  A
C867        C988   1.442       .  S
C868       O1202   1.279       .  A
C868        C940   1.440       .  S
O869       C1203   1.268   1_554  A
C870        C955   1.450       .  S
Fe871       O887   2.044       .  S
Fe871       O877   2.073       .  S
Fe871       O884   2.082       .  S
Fe871       O876   2.044       .  S
Fe871       O882   1.961       .  S
Fe872       O875   2.077       .  S
Fe872       O879   2.130       .  S
Fe872       O883   2.077       .  S
Fe872       O888   2.114       .  S
Fe872       O882   1.952       .  S
Fe873       O891   2.074       .  S
Fe873       O878   2.033       .  S
Fe873       O885   2.038       .  S
Fe873       O874   2.072       .  S
Fe873       O882   1.953       .  S
O874        C881   1.271       .  A
O875        C889   1.271       .  A
O876        C881   1.267       .  A
O877        C880   1.268       .  A
O878        C890   1.262       .  A
O879        C892   1.284       .  A
C880        O885   1.259       .  A
C880        C958   1.426   1_565  S
C881       C1309   1.417   1_554  S
O883        C886   1.267       .  A
O884        C886   1.267       .  A
C886        C937   1.450       .  S
O887        C892   1.269       .  A
O888        C890   1.279       .  A
C889        O891   1.269       .  A
C889        C942   1.443       .  S
C890        C939   1.440       .  S
C892        C960   1.450       .  S
Fe893       O909   2.044       .  S
Fe893       O899   2.073       .  S
Fe893       O906   2.082       .  S
Fe893       O898   2.044       .  S
Fe893       O904   1.961       .  S
Fe894       O897   2.077       .  S
Fe894       O901   2.130       .  S
Fe894       O905   2.076       .  S
Fe894       O910   2.113       .  S
Fe894       O904   1.951       .  S
Fe895       O913   2.072       .  S
Fe895       O900   2.034       .  S
Fe895       O907   2.038       .  S
Fe895       O896   2.072       .  S
Fe895       O904   1.953       .  S
O896        C903   1.271       .  A
O897        C911   1.271       .  A
O898        C903   1.267       .  A
O899        C902   1.268       .  A
O900        C912   1.262       .  A
O901        C914   1.284       .  A
C902        O907   1.259       .  A
C902        C944   1.426       .  S
C903       C1008   1.417       .  S
O905        C908   1.266       .  A
O906        C908   1.267       .  A
C908        C950   1.450       .  S
O909        C914   1.269       .  A
O910        C912   1.279       .  A
C911        O913   1.268       .  A
C911        C954   1.442       .  S
C912        C976   1.440       .  S
C914        C994   1.449       .  S
Fe915      O1267   2.044       .  S
Fe915       O921   2.074       .  S
Fe915       O928   2.083       .  S
Fe915       O920   2.044       .  S
Fe915       O926   1.961       .  S
Fe916       O919   2.077       .  S
Fe916       O923   2.129       .  S
Fe916       O927   2.077       .  S
Fe916       O932   2.113   1_554  S
Fe916      O1262   1.952   1_554  S
Fe917      O1271   2.073       .  S
Fe917       O922   2.034       .  S
Fe917       O929   2.038       .  S
Fe917       O918   2.072       .  S
Fe917       O926   1.953       .  S
O918        C925   1.271       .  A
O919        C933   1.271       .  A
O920        C925   1.267       .  A
O921        C924   1.268       .  A
O922        C934   1.262       .  A
O923        C936   1.284       .  A
C924        O929   1.259       .  A
C924        C970   1.426       .  S
C925        C982   1.417       .  S
O926      Fe1252   1.952       .  S
O927        C930   1.267   1_554  A
O928       C1266   1.267       .  A
C930       O1264   1.267       .  A
C930       C1328   1.451       .  S
O931      Fe1251   2.044   1_554  S
O931        C936   1.269       .  A
O932       C1270   1.279       .  A
C933        O935   1.268   1_554  A
C933        C999   1.443       .  S
C934       O1268   1.279       .  A
C934        C952   1.440       .  S
O935      Fe1253   2.073       .  S
C936        C938   1.449       .  S
C937       C2282   1.215   1_455  T
C938       C2281   1.215       .  T
C939        C940   1.210       .  T
C941        C942   1.211       .  T
C945        C946   1.209       .  T
C947        C948   1.195       .  T
C949       C2294   1.215   1_455  T
C950       C2293   1.215       .  T
C951        C952   1.209       .  T
C953        C954   1.210       .  T
C955        C956   1.216       .  T
C961        C962   1.195       .  T
C963        C964   1.202       .  T
C965        C966   1.216       .  T
C967        C968   1.210       .  T
C969       C2314   1.202   1_455  T
C970       C2313   1.202       .  T
C973       C1217   1.417       .  S
C973        C974   1.196       .  T
C975        C976   1.210       .  T
C977        C978   1.210       .  T
C979       C2324   1.215   1_455  T
C980       C2323   1.215       .  T
C981        C982   1.196       .  T
C983        C984   1.216       .  T
C985        C986   1.210       .  T
C987        C988   1.210       .  T
C989        C990   1.202       .  T
C991        C992   1.216       .  T
C992       C1266   1.451       .  S
C995        C996   1.196       .  T
C997        C998   1.210       .  T
C999       C1000   1.211       .  T
C1001      C2346   1.215   1_455  T
C1002      C2345   1.215       .  T
C1003      C2348   1.202       .  T
C1004      C2347   1.202   1_455  T
C1007      C1008   1.196       .  T
Fe1009     O1025   2.044       .  S
Fe1009     O1015   2.073       .  S
Fe1009     O1022   2.081       .  S
Fe1009     O1014   2.044       .  S
Fe1009     O1020   1.960       .  S
Fe1010     O1013   2.077       .  S
Fe1010     O1017   2.130       .  S
Fe1010     O1021   2.077       .  S
Fe1010     O1026   2.114       .  S
Fe1010     O1020   1.951       .  S
Fe1011     O1029   2.073       .  S
Fe1011     O1016   2.033       .  S
Fe1011     O1023   2.038       .  S
Fe1011     O1012   2.073       .  S
Fe1011     O1020   1.953       .  S
O1012      C1019   1.271       .  A
O1013      C1027   1.271       .  A
O1014      C1019   1.267       .  A
O1015      C1018   1.268       .  A
O1016      C1028   1.262       .  A
O1017      C1030   1.284       .  A
C1018      O1023   1.259       .  A
C1018      C1339   1.426       .  S
C1019      C1343   1.417       .  S
O1021      C1024   1.266       .  A
O1022      C1024   1.267       .  A
C1024      C1341   1.450       .  S
O1025      C1030   1.269       .  A
O1026      C1028   1.279       .  A
C1027      O1029   1.269       .  A
C1027      C1336   1.443       .  S
C1028      C1333   1.440       .  S
C1030      C1338   1.449       .  S
Fe1031     O1047   2.045       .  S
Fe1031     O1037   2.073       .  S
Fe1031     O1044   2.082       .  S
Fe1031     O1036   2.044       .  S
Fe1031     O1042   1.961       .  S
Fe1032     O1035   2.076       .  S
Fe1032     O1039   2.130       .  S
Fe1032     O1043   2.076       .  S
Fe1032     O1048   2.113       .  S
Fe1032     O1042   1.952       .  S
Fe1033     O1051   2.072       .  S
Fe1033     O1038   2.033       .  S
Fe1033     O1045   2.038       .  S
Fe1033     O1034   2.071       .  S
Fe1033     O1042   1.954       .  S
O1034      C1041   1.271       .  A
O1035      C1049   1.271       .  A
O1036      C1041   1.267       .  A
O1037      C1040   1.268       .  A
O1038      C1050   1.262       .  A
O1039      C1052   1.284       .  A
C1040      O1045   1.259       .  A
C1040      C1326   1.426       .  S
C1041      C1331   1.417       .  S
O1043      C1046   1.266       .  A
O1044      C1046   1.267       .  A
C1046      C1329   1.450   1_565  S
O1047      C1052   1.269       .  A
O1048      C1050   1.279       .  A
C1049      O1051   1.268       .  A
C1049      C1323   1.442       .  S
C1050      C1322   1.440       .  S
C1052      C1327   1.450       .  S
Fe1053     O1069   2.045       .  S
Fe1053     O1059   2.073       .  S
Fe1053     O1066   2.081       .  S
Fe1053     O1058   2.044       .  S
Fe1053     O1064   1.961       .  S
Fe1054     O1057   2.076       .  S
Fe1054     O1061   2.130       .  S
Fe1054     O1065   2.076       .  S
Fe1054     O1070   2.114       .  S
Fe1054     O1064   1.952       .  S
Fe1055     O1073   2.073       .  S
Fe1055     O1060   2.033       .  S
Fe1055     O1067   2.038       .  S
Fe1055     O1056   2.071       .  S
Fe1055     O1064   1.954       .  S
O1056      C1063   1.271       .  A
O1057      C1071   1.271       .  A
O1058      C1063   1.267       .  A
O1059      C1062   1.268       .  A
O1060      C1072   1.262       .  A
O1061      C1074   1.284       .  A
C1062      O1067   1.259       .  A
C1062      C1325   1.426       .  S
C1063      C1317   1.417       .  S
O1065      C1068   1.266       .  A
O1066      C1068   1.267       .  A
C1068      C1316   1.450       .  S
O1069      C1074   1.269       .  A
O1070      C1072   1.279       .  A
C1071      O1073   1.268       .  A
C1071      C1313   1.443       .  S
C1072      C1311   1.440       .  S
C1074      C1319   1.450       .  S
Fe1075     O1091   2.044       .  S
Fe1075     O1081   2.074       .  S
Fe1075     O1088   2.081       .  S
Fe1075     O1080   2.044       .  S
Fe1075     O1086   1.961       .  S
Fe1076     O1079   2.077       .  S
Fe1076     O1083   2.129       .  S
Fe1076     O1087   2.077       .  S
Fe1076     O1092   2.113       .  S
Fe1076     O1086   1.952       .  S
Fe1077     O1095   2.072       .  S
Fe1077     O1082   2.034       .  S
Fe1077     O1089   2.038       .  S
Fe1077     O1078   2.072       .  S
Fe1077     O1086   1.953       .  S
O1078      C1085   1.271       .  A
O1079      C1093   1.271       .  A
O1080      C1085   1.267       .  A
O1081      C1084   1.267       .  A
O1082      C1094   1.262       .  A
O1083      C1096   1.284       .  A
C1084      O1089   1.259       .  A
C1084      C1305   1.426       .  S
C1085      C1310   1.417       .  S
O1087      C1090   1.266       .  A
O1088      C1090   1.267       .  A
C1090      C1307   1.450   1_565  S
O1091      C1096   1.269       .  A
O1092      C1094   1.279       .  A
C1093      O1095   1.268       .  A
C1093      C1303   1.442       .  S
C1094      C1321   1.440       .  S
C1096      C1315   1.449       .  S
Fe1097     O1113   2.045       .  S
Fe1097     O1103   2.074       .  S
Fe1097     O1110   2.082       .  S
Fe1097     O1102   2.044       .  S
Fe1097     O1108   1.961       .  S
Fe1098     O1101   2.076       .  S
Fe1098     O1105   2.131       .  S
Fe1098     O1109   2.076       .  S
Fe1098     O1114   2.114       .  S
Fe1098     O1108   1.952       .  S
Fe1099     O1117   2.072       .  S
Fe1099     O1104   2.033       .  S
Fe1099     O1111   2.038       .  S
Fe1099     O1100   2.071       .  S
Fe1099     O1108   1.954       .  S
O1100      C1107   1.271       .  A
O1101      C1115   1.271       .  A
O1102      C1107   1.267       .  A
O1103      C1106   1.268       .  A
O1104      C1116   1.262       .  A
O1105      C1118   1.284       .  A
C1106      O1111   1.259       .  A
C1106      C1299   1.426       .  S
C1107      C1298   1.417       .  S
O1109      C1112   1.266       .  A
O1110      C1112   1.267       .  A
C1112      C1295   1.450       .  S
O1113      C1118   1.269       .  A
O1114      C1116   1.279       .  A
C1115      O1117   1.268       .  A
C1115      C1314   1.443       .  S
C1116      C1334   1.440       .  S
C1118      C1301   1.450       .  S
Fe1119     O1135   2.044       .  S
Fe1119     O1125   2.075       .  S
Fe1119     O1132   2.083       .  S
Fe1119     O1124   2.043       .  S
Fe1119     O1130   1.961       .  S
Fe1120     O1123   2.077       .  S
Fe1120     O1127   2.129       .  S
Fe1120     O1131   2.077       .  S
Fe1120     O1136   2.112       .  S
Fe1120     O1130   1.952       .  S
Fe1121     O1139   2.072       .  S
Fe1121     O1126   2.034       .  S
Fe1121     O1133   2.038       .  S
Fe1121     O1122   2.072       .  S
Fe1121     O1130   1.953       .  S
O1123      C1137   1.271       .  A
O1125      C1128   1.268       .  A
O1126      C1138   1.262       .  A
O1127      C1140   1.284       .  A
C1128      O1133   1.259       .  A
C1128      C1293   1.426       .  S
C1129      C1297   1.417       .  S
O1131      C1134   1.267       .  A
O1132      C1134   1.267       .  A
C1134      C1292   1.451       .  S
O1135      C1140   1.269       .  A
O1136      C1138   1.279       .  A
C1137      O1139   1.268       .  A
C1137      C1289   1.442       .  S
C1138      C1287   1.440       .  S
C1140      C1308   1.449       .  S
Fe1141     O1157   2.044       .  S
Fe1141     O1147   2.074       .  S
Fe1141     O1154   2.083       .  S
Fe1141     O1146   2.043       .  S
Fe1141     O1152   1.961       .  S
Fe1142     O1145   2.077       .  S
Fe1142     O1149   2.129       .  S
Fe1142     O1153   2.077       .  S
Fe1142     O1158   2.112       .  S
Fe1142     O1152   1.952       .  S
Fe1143     O1161   2.072       .  S
Fe1143     O1148   2.034       .  S
Fe1143     O1155   2.038       .  S
Fe1143     O1144   2.072       .  S
Fe1143     O1152   1.953       .  S
O1144      C1151   1.271       .  A
O1145      C1159   1.271       .  A
O1146      C1151   1.267       .  A
O1147      C1150   1.268       .  A
O1148      C1160   1.262       .  A
O1149      C1162   1.284       .  A
C1150      O1155   1.259       .  A
C1150      C1340   1.426       .  S
C1151      C1283   1.417       .  S
O1153      C1156   1.267       .  A
O1154      C1156   1.267       .  A
C1156      C1302   1.451       .  S
O1157      C1162   1.269       .  A
O1158      C1160   1.279       .  A
C1159      O1161   1.268       .  A
C1159      C1304   1.442       .  S
C1160      C1282   1.440       .  S
C1162      C1285   1.449       .  S
Fe1163     O1179   2.044       .  S
Fe1163     O1169   2.075       .  S
Fe1163     O1176   2.083       .  S
Fe1163     O1168   2.044       .  S
Fe1163     O1174   1.961       .  S
Fe1164     O1167   2.077       .  S
Fe1164     O1171   2.128       .  S
Fe1164     O1175   2.077       .  S
Fe1164     O1180   2.113       .  S
Fe1164     O1174   1.952       .  S
Fe1165     O1183   2.073       .  S
Fe1165     O1170   2.034       .  S
Fe1165     O1177   2.037       .  S
Fe1165     O1166   2.073       .  S
Fe1165     O1174   1.953       .  S
O1166      C1173   1.271       .  A
O1167      C1181   1.271       .  A
O1168      C1173   1.267       .  A
O1169      C1172   1.268       .  A
O1170      C1182   1.262       .  A
O1171      C1184   1.284       .  A
C1172      O1177   1.259       .  A
C1172      C1279   1.426   1_565  S
C1173      C1332   1.418       .  S
O1175      C1178   1.267       .  A
O1176      C1178   1.267       .  A
C1178      C1320   1.451       .  S
O1179      C1184   1.269       .  A
O1180      C1182   1.279       .  A
C1181      O1183   1.268       .  A
C1181      C1277   1.443       .  S
C1182      C1281   1.440       .  S
C1184      C1342   1.449       .  S
Fe1185     O1191   2.074       .  S
Fe1185     O1198   2.082       .  S
Fe1185     O1190   2.044       .  S
Fe1185     O1196   1.961       .  S
Fe1186     O1189   2.076       .  S
Fe1186     O1193   2.130       .  S
Fe1186     O1197   2.076   1_556  S
Fe1186     O1202   2.114   1_556  S
Fe1187     O1205   2.072       .  S
Fe1187     O1192   2.033       .  S
Fe1187     O1199   2.038       .  S
Fe1187     O1188   2.071       .  S
Fe1187     O1196   1.954       .  S
O1188      C1195   1.271       .  A
O1189      C1203   1.271       .  A
O1190      C1195   1.267       .  A
O1191      C1194   1.268       .  A
O1192      C1204   1.262       .  A
O1193      C1206   1.284       .  A
C1194      O1199   1.259       .  A
C1194      C1300   1.426       .  S
C1195      C1284   1.417       .  S
O1198      C1200   1.267       .  A
C1200      C1337   1.450       .  S
O1201      C1206   1.269       .  A
C1203      C1324   1.442       .  S
C1204      C1276   1.440       .  S
C1206      C1291   1.450       .  S
Fe1207     O1223   2.044       .  S
Fe1207     O1213   2.073       .  S
Fe1207     O1220   2.082       .  S
Fe1207     O1212   2.044       .  S
Fe1207     O1218   1.961       .  S
Fe1208     O1211   2.077       .  S
Fe1208     O1215   2.130       .  S
Fe1208     O1219   2.077       .  S
Fe1208     O1224   2.114       .  S
Fe1208     O1218   1.952       .  S
Fe1209     O1227   2.074       .  S
Fe1209     O1214   2.033       .  S
Fe1209     O1221   2.038       .  S
Fe1209     O1210   2.072       .  S
Fe1209     O1218   1.953       .  S
O1210      C1217   1.271       .  A
O1211      C1225   1.271       .  A
O1212      C1217   1.267       .  A
O1213      C1216   1.268       .  A
O1214      C1226   1.262       .  A
O1215      C1228   1.284       .  A
C1216      O1221   1.259       .  A
C1216      C1294   1.426   1_565  S
O1219      C1222   1.266       .  A
O1220      C1222   1.267       .  A
C1222      C1273   1.450       .  S
O1223      C1228   1.269       .  A
O1224      C1226   1.279       .  A
C1225      O1227   1.269       .  A
C1225      C1278   1.443       .  S
C1226      C1275   1.440       .  S
C1228      C1296   1.450       .  S
Fe1229     O1245   2.044       .  S
Fe1229     O1235   2.073       .  S
Fe1229     O1242   2.082       .  S
Fe1229     O1234   2.044       .  S
Fe1229     O1240   1.961       .  S
Fe1230     O1233   2.077       .  S
Fe1230     O1237   2.130       .  S
Fe1230     O1241   2.076       .  S
Fe1230     O1246   2.113       .  S
Fe1230     O1240   1.951       .  S
Fe1231     O1249   2.072       .  S
Fe1231     O1236   2.034       .  S
Fe1231     O1243   2.038       .  S
Fe1231     O1232   2.072       .  S
Fe1231     O1240   1.953       .  S
O1232      C1239   1.271       .  A
O1233      C1247   1.271       .  A
O1234      C1239   1.267       .  A
O1235      C1238   1.268       .  A
O1236      C1248   1.262       .  A
O1237      C1250   1.284       .  A
C1238      O1243   1.259       .  A
C1238      C1280   1.426       .  S
C1239      C1344   1.417       .  S
O1241      C1244   1.266       .  A
O1242      C1244   1.267       .  A
C1244      C1286   1.450       .  S
O1245      C1250   1.269       .  A
O1246      C1248   1.279       .  A
C1247      O1249   1.268       .  A
C1247      C1290   1.442       .  S
C1248      C1312   1.440       .  S
C1250      C1330   1.449       .  S
Fe1251     O1257   2.074       .  S
Fe1251     O1264   2.083       .  S
Fe1251     O1256   2.044       .  S
Fe1251     O1262   1.961       .  S
Fe1252     O1255   2.077       .  S
Fe1252     O1259   2.129       .  S
Fe1252     O1263   2.077       .  S
Fe1252     O1268   2.113       .  S
Fe1253     O1258   2.034       .  S
Fe1253     O1265   2.038       .  S
Fe1253     O1254   2.072       .  S
Fe1253     O1262   1.953       .  S
O1254      C1261   1.271       .  A
O1255      C1269   1.271       .  A
O1256      C1261   1.267       .  A
O1257      C1260   1.268       .  A
O1258      C1270   1.262       .  A
O1259      C1272   1.284       .  A
C1260      O1265   1.259       .  A
C1260      C1306   1.426       .  S
C1261      C1318   1.418       .  S
O1263      C1266   1.267       .  A
O1267      C1272   1.269       .  A
C1269      O1271   1.268       .  A
C1269      C1335   1.443       .  S
C1270      C1288   1.440       .  S
C1272      C1274   1.449       .  S
C1273      C2618   1.215   1_455  T
C1274      C2617   1.215       .  T
C1275      C1276   1.210       .  T
C1277      C1278   1.211       .  T
C1281      C1282   1.209       .  T
C1283      C1284   1.195       .  T
C1285      C2630   1.215   1_455  T
C1286      C2629   1.215       .  T
C1287      C1288   1.209       .  T
C1289      C1290   1.210       .  T
C1291      C1292   1.216       .  T
C1297      C1298   1.195       .  T
C1299      C1300   1.202       .  T
C1301      C1302   1.216       .  T
C1303      C1304   1.210       .  T
C1305      C2650   1.202   1_455  T
C1306      C2649   1.202       .  T
C1309      C1310   1.196       .  T
C1311      C1312   1.210       .  T
C1313      C1314   1.210       .  T
C1315      C2660   1.215   1_455  T
C1316      C2659   1.215       .  T
C1317      C1318   1.196       .  T
C1319      C1320   1.215       .  T
C1321      C1322   1.210       .  T
C1323      C1324   1.210       .  T
C1325      C1326   1.202       .  T
C1327      C1328   1.216       .  T
C1331      C1332   1.196       .  T
C1333      C1334   1.210       .  T
C1335      C1336   1.211       .  T
C1337      C2682   1.215   1_455  T
C1338      C2681   1.215       .  T
C1339      C2684   1.202       .  T
C1340      C2683   1.202   1_455  T
C1343      C1344   1.196       .  T
Fe1345     O1361   2.044       .  S
Fe1345     O1351   2.073       .  S
Fe1345     O1358   2.081       .  S
Fe1345     O1350   2.044       .  S
Fe1345     O1356   1.960       .  S
Fe1346     O1349   2.077       .  S
Fe1346     O1353   2.130       .  S
Fe1346     O1357   2.077       .  S
Fe1346     O1362   2.114       .  S
Fe1346     O1356   1.951       .  S
Fe1347     O1365   2.073       .  S
Fe1347     O1352   2.033       .  S
Fe1347     O1359   2.038       .  S
Fe1347     O1348   2.073       .  S
Fe1347     O1356   1.953       .  S
O1348      C1355   1.271       .  A
O1349      C1363   1.271       .  A
O1350      C1355   1.267       .  A
O1351      C1354   1.268       .  A
O1352      C1364   1.262       .  A
O1353      C1366   1.284       .  A
C1354      O1359   1.259       .  A
C1354      C1675   1.426       .  S
C1355      C1679   1.417       .  S
O1357      C1360   1.266       .  A
O1358      C1360   1.267       .  A
C1360      C1677   1.450       .  S
O1361      C1366   1.269       .  A
O1362      C1364   1.279       .  A
C1363      O1365   1.269       .  A
C1363      C1672   1.443       .  S
C1364      C1669   1.440       .  S
C1366      C1674   1.449       .  S
Fe1367     O1383   2.045       .  S
Fe1367     O1373   2.073       .  S
Fe1367     O1380   2.082       .  S
Fe1367     O1372   2.044       .  S
Fe1367     O1378   1.961       .  S
Fe1368     O1371   2.076       .  S
Fe1368     O1375   2.130       .  S
Fe1368     O1379   2.076       .  S
Fe1368     O1384   2.113       .  S
Fe1368     O1378   1.952       .  S
Fe1369     O1387   2.072       .  S
Fe1369     O1374   2.033       .  S
Fe1369     O1381   2.038       .  S
Fe1369     O1370   2.071       .  S
Fe1369     O1378   1.954       .  S
O1370      C1377   1.271       .  A
O1371      C1385   1.271       .  A
O1372      C1377   1.267       .  A
O1373      C1376   1.268       .  A
O1374      C1386   1.262       .  A
O1375      C1388   1.284       .  A
C1376      O1381   1.259       .  A
C1376      C1662   1.426       .  S
C1377      C1667   1.417       .  S
O1379      C1382   1.266       .  A
O1380      C1382   1.267       .  A
C1382      C1665   1.450       .  S
O1383      C1388   1.269       .  A
O1384      C1386   1.279       .  A
C1385      O1387   1.268       .  A
C1385      C1659   1.442       .  S
C1386      C1658   1.440       .  S
C1388      C1663   1.450       .  S
Fe1389     O1405   2.045       .  S
Fe1389     O1395   2.073       .  S
Fe1389     O1402   2.081       .  S
Fe1389     O1394   2.044       .  S
Fe1389     O1400   1.961       .  S
Fe1390     O1393   2.076       .  S
Fe1390     O1397   2.130       .  S
Fe1390     O1401   2.076       .  S
Fe1390     O1406   2.114       .  S
Fe1390     O1400   1.952       .  S
Fe1391     O1409   2.073       .  S
Fe1391     O1396   2.033       .  S
Fe1391     O1403   2.038       .  S
Fe1391     O1392   2.071       .  S
Fe1391     O1400   1.954       .  S
O1392      C1399   1.271       .  A
O1393      C1407   1.271       .  A
O1394      C1399   1.267       .  A
O1395      C1398   1.268       .  A
O1396      C1408   1.262       .  A
O1397      C1410   1.284       .  A
C1398      O1403   1.259       .  A
C1398      C1661   1.426       .  S
C1399      C1653   1.417       .  S
O1401      C1404   1.266       .  A
O1402      C1404   1.267       .  A
C1404      C1652   1.450       .  S
O1405      C1410   1.269       .  A
O1406      C1408   1.279       .  A
C1407      O1409   1.268       .  A
C1407      C1649   1.442       .  S
C1408      C1647   1.440       .  S
C1410      C1655   1.450       .  S
Fe1411     O1427   2.044       .  S
Fe1411     O1417   2.074       .  S
Fe1411     O1424   2.081       .  S
Fe1411     O1416   2.044       .  S
Fe1411     O1422   1.961       .  S
Fe1412     O1415   2.077       .  S
Fe1412     O1419   2.129       .  S
Fe1412     O1423   2.077       .  S
Fe1412     O1428   2.113       .  S
Fe1412     O1422   1.952       .  S
Fe1413     O1431   2.072       .  S
Fe1413     O1418   2.034       .  S
Fe1413     O1425   2.038       .  S
Fe1413     O1414   2.072       .  S
Fe1413     O1422   1.953       .  S
O1414      C1421   1.271       .  A
O1415      C1429   1.271       .  A
O1416      C1421   1.267       .  A
O1417      C1420   1.267       .  A
O1418      C1430   1.262       .  A
O1419      C1432   1.284       .  A
C1420      O1425   1.259       .  A
C1420      C1641   1.426       .  S
C1421      C1646   1.417       .  S
O1423      C1426   1.266       .  A
O1424      C1426   1.267       .  A
C1426      C1643   1.450       .  S
O1427      C1432   1.269       .  A
O1428      C1430   1.279       .  A
C1429      O1431   1.268       .  A
C1429      C1639   1.442       .  S
C1430      C1657   1.440       .  S
C1432      C1651   1.449       .  S
Fe1433     O1449   2.045       .  S
Fe1433     O1439   2.074       .  S
Fe1433     O1446   2.082       .  S
Fe1433     O1438   2.044       .  S
Fe1433     O1444   1.961       .  S
Fe1434     O1437   2.076       .  S
Fe1434     O1441   2.131       .  S
Fe1434     O1445   2.076       .  S
Fe1434     O1450   2.114       .  S
Fe1434     O1444   1.952       .  S
Fe1435     O1453   2.072       .  S
Fe1435     O1440   2.033       .  S
Fe1435     O1447   2.038       .  S
Fe1435     O1436   2.071       .  S
Fe1435     O1444   1.954       .  S
O1436      C1443   1.271       .  A
O1437      C1451   1.271       .  A
O1438      C1443   1.267       .  A
O1439      C1442   1.268       .  A
O1440      C1452   1.262       .  A
O1441      C1454   1.284       .  A
C1442      O1447   1.259       .  A
C1442      C1635   1.426       .  S
C1443      C1634   1.417       .  S
O1445      C1448   1.266       .  A
O1446      C1448   1.267       .  A
C1448      C1631   1.450       .  S
O1449      C1454   1.269       .  A
O1450      C1452   1.279       .  A
C1451      O1453   1.268       .  A
C1451      C1650   1.443       .  S
C1452      C1670   1.440       .  S
C1454      C1637   1.450       .  S
Fe1455     O1471   2.044       .  S
Fe1455     O1461   2.075       .  S
Fe1455     O1468   2.083       .  S
Fe1455     O1460   2.043       .  S
Fe1455     O1466   1.961       .  S
Fe1456     O1459   2.077       .  S
Fe1456     O1463   2.129       .  S
Fe1456     O1467   2.077       .  S
Fe1456     O1472   2.112       .  S
Fe1456     O1466   1.952       .  S
Fe1457     O1475   2.072       .  S
Fe1457     O1462   2.034       .  S
Fe1457     O1469   2.038       .  S
Fe1457     O1458   2.072       .  S
Fe1457     O1466   1.953       .  S
O1458      C1801   1.271       .  A
O1459      C1473   1.271       .  A
O1460      C1801   1.267       .  A
O1461      C1464   1.268       .  A
O1462      C1474   1.262       .  A
O1463      C1476   1.284       .  A
C1464      O1469   1.259       .  A
C1464      C1629   1.426       .  S
C1465      O1794   1.271   1_554  A
C1465      O1796   1.267   1_554  A
C1465      C1633   1.417       .  S
O1467      C1470   1.267       .  A
O1468      C1470   1.267       .  A
C1470      C1628   1.451       .  S
O1471      C1476   1.269       .  A
O1472      C1474   1.279       .  A
C1473      O1475   1.268       .  A
C1473      C1625   1.442       .  S
C1474      C1623   1.440       .  S
C1476      C1644   1.449       .  S
Fe1477     O1493   2.044       .  S
Fe1477     O1483   2.074       .  S
Fe1477     O1490   2.083       .  S
Fe1477     O1482   2.043       .  S
Fe1477     O1488   1.961       .  S
Fe1478     O1481   2.077       .  S
Fe1478     O1485   2.129       .  S
Fe1478     O1489   2.077       .  S
Fe1478     O1494   2.112       .  S
Fe1478     O1488   1.952       .  S
Fe1479     O1497   2.072       .  S
Fe1479     O1484   2.034       .  S
Fe1479     O1491   2.038       .  S
Fe1479     O1480   2.072       .  S
Fe1479     O1488   1.953       .  S
O1480      C1487   1.271       .  A
O1481      C1495   1.271       .  A
O1482      C1487   1.267       .  A
O1483      C1486   1.268       .  A
O1484      C1496   1.262       .  A
O1485      C1498   1.284       .  A
C1486      O1491   1.259       .  A
C1486      C1676   1.426       .  S
C1487      C1619   1.417       .  S
O1489      C1492   1.267       .  A
O1490      C1492   1.267       .  A
C1492      C1638   1.451       .  S
O1493      C1498   1.269       .  A
O1494      C1496   1.279       .  A
C1495      O1497   1.268       .  A
C1495      C1640   1.442       .  S
C1496      C1618   1.440       .  S
C1498      C1621   1.449       .  S
Fe1499     O1515   2.044       .  S
Fe1499     O1505   2.075       .  S
Fe1499     O1512   2.083       .  S
Fe1499     O1504   2.044       .  S
Fe1499     O1510   1.961       .  S
Fe1500     O1503   2.077       .  S
Fe1500     O1507   2.128       .  S
Fe1500     O1511   2.077       .  S
Fe1500     O1516   2.113       .  S
Fe1500     O1510   1.952       .  S
Fe1501     O1519   2.073       .  S
Fe1501     O1506   2.034       .  S
Fe1501     O1513   2.037       .  S
Fe1501     O1502   2.073       .  S
Fe1501     O1510   1.953       .  S
O1502      C1509   1.271       .  A
O1503      C1517   1.271       .  A
O1504      C1509   1.267       .  A
O1505      C1508   1.268       .  A
O1506      C1518   1.262       .  A
O1507      C1520   1.284       .  A
C1508      O1513   1.259       .  A
C1508      C1615   1.426       .  S
C1509      C1668   1.418       .  S
O1511      C1514   1.267       .  A
O1512      C1514   1.267       .  A
C1514      C1656   1.451       .  S
O1515      C1520   1.269       .  A
O1516      C1518   1.279       .  A
C1517      O1519   1.268       .  A
C1517      C1613   1.443       .  S
C1518      C1617   1.440       .  S
C1520      C1678   1.449       .  S
Fe1521     O1873   2.045   1_554  S
Fe1521     O1527   2.074       .  S
Fe1521     O1534   2.082       .  S
Fe1521     O1526   2.044       .  S
Fe1521     O1532   1.961       .  S
Fe1522     O1525   2.076       .  S
Fe1522     O1529   2.130       .  S
Fe1522     O1533   2.076       .  S
Fe1522     O1538   2.114       .  S
Fe1522     O1868   1.952       .  S
Fe1523     O1541   2.072       .  S
Fe1523     O1528   2.033       .  S
Fe1523     O1535   2.038       .  S
Fe1523     O1524   2.071       .  S
Fe1523     O1532   1.954       .  S
O1524      C1531   1.271       .  A
O1525      C1539   1.271       .  A
O1526      C1531   1.267       .  A
O1527      C1530   1.268       .  A
O1528      C1540   1.262       .  A
O1529      C1542   1.284       .  A
C1530      O1535   1.259       .  A
C1530      C1636   1.426       .  S
C1531      C1620   1.417       .  S
O1532     Fe1858   1.952   1_554  S
O1533      C1872   1.266       .  A
O1534      C1536   1.267       .  A
C1536      O1869   1.266       .  A
C1536      C1673   1.450       .  S
O1537     Fe1857   2.045       .  S
O1537      C1542   1.269       .  A
O1538      C1876   1.279       .  A
C1539      O1877   1.268       .  A
C1539      C1660   1.442       .  S
C1540      O1874   1.279       .  A
C1540      C1612   1.440       .  S
O1541      C1875   1.268   1_554  A
C1542      C1627   1.450       .  S
Fe1543     O1559   2.044       .  S
Fe1543     O1549   2.073       .  S
Fe1543     O1556   2.082       .  S
Fe1543     O1548   2.044       .  S
Fe1543     O1554   1.961       .  S
Fe1544     O1547   2.077       .  S
Fe1544     O1551   2.130       .  S
Fe1544     O1555   2.077       .  S
Fe1544     O1560   2.114       .  S
Fe1544     O1554   1.952       .  S
Fe1545     O1563   2.074       .  S
Fe1545     O1550   2.033       .  S
Fe1545     O1557   2.038       .  S
Fe1545     O1546   2.072       .  S
Fe1545     O1554   1.953       .  S
O1546      C1553   1.271       .  A
O1547      C1561   1.271       .  A
O1548      C1553   1.267       .  A
O1549      C1552   1.268       .  A
O1550      C1562   1.262       .  A
O1551      C1564   1.284       .  A
C1552      O1557   1.259       .  A
C1552      C1630   1.426       .  S
C1553      C1981   1.417   1_554  S
O1555      C1558   1.266       .  A
O1556      C1558   1.267       .  A
C1558      C1609   1.450       .  S
O1559      C1564   1.269       .  A
O1560      C1562   1.279       .  A
C1561      O1563   1.269       .  A
C1561      C1614   1.443       .  S
C1562      C1611   1.440       .  S
C1564      C1632   1.450       .  S
Fe1565     O1581   2.044       .  S
Fe1565     O1571   2.073       .  S
Fe1565     O1578   2.082       .  S
Fe1565     O1570   2.044       .  S
Fe1565     O1576   1.961       .  S
Fe1566     O1569   2.077       .  S
Fe1566     O1573   2.130       .  S
Fe1566     O1577   2.076       .  S
Fe1566     O1582   2.113       .  S
Fe1566     O1576   1.951       .  S
Fe1567     O1585   2.072       .  S
Fe1567     O1572   2.034       .  S
Fe1567     O1579   2.038       .  S
Fe1567     O1568   2.072       .  S
Fe1567     O1576   1.953       .  S
O1568      C1575   1.271       .  A
O1569      C1583   1.271       .  A
O1570      C1575   1.267       .  A
O1571      C1574   1.268       .  A
O1572      C1584   1.262       .  A
O1573      C1586   1.284       .  A
C1574      O1579   1.259       .  A
C1574      C1616   1.426       .  S
C1575      C1680   1.417       .  S
O1577      C1580   1.266       .  A
O1578      C1580   1.267       .  A
C1580      C1622   1.450       .  S
O1581      C1586   1.269       .  A
O1582      C1584   1.279       .  A
C1583      O1585   1.268       .  A
C1583      C1626   1.442       .  S
C1584      C1648   1.440       .  S
C1586      C1666   1.449       .  S
Fe1587     O1939   2.044       .  S
Fe1587     O1593   2.074       .  S
Fe1587     O1600   2.083       .  S
Fe1587     O1592   2.044       .  S
Fe1587     O1598   1.961       .  S
Fe1588     O1591   2.077       .  S
Fe1588     O1595   2.129       .  S
Fe1588     O1599   2.077       .  S
Fe1588     O1604   2.113   1_554  S
Fe1588     O1934   1.952   1_554  S
Fe1589     O1943   2.073       .  S
Fe1589     O1594   2.034       .  S
Fe1589     O1601   2.038       .  S
Fe1589     O1590   2.072       .  S
Fe1589     O1598   1.953       .  S
O1590      C1597   1.271       .  A
O1591      C1605   1.271       .  A
O1592      C1597   1.267       .  A
O1593      C1596   1.268       .  A
O1594      C1606   1.262       .  A
O1595      C1608   1.284       .  A
C1596      O1601   1.259       .  A
C1596      C1642   1.426       .  S
C1597      C1654   1.418       .  S
O1598     Fe1924   1.952       .  S
O1599      C1602   1.267   1_554  A
O1600      C1938   1.267       .  A
C1602      O1936   1.267       .  A
C1602      C2000   1.451       .  S
O1603     Fe1923   2.044   1_554  S
O1603      C1608   1.269       .  A
O1604      C1942   1.279       .  A
C1605      O1607   1.268   1_554  A
C1605      C1671   1.443       .  S
C1606      O1940   1.279       .  A
C1606      C1624   1.440       .  S
O1607     Fe1925   2.073       .  S
C1608      C1610   1.449       .  S
C1611      C1612   1.210       .  T
C1613      C1614   1.211       .  T
C1615      C2288   1.202       .  T
C1616      C2287   1.202       .  T
C1617      C1618   1.209       .  T
C1619      C1620   1.195       .  T
C1623      C1624   1.209       .  T
C1625      C1626   1.210       .  T
C1627      C1628   1.215       .  T
C1629      C2638   1.202       .  T
C1630      C2637   1.202   1_554  T
C1631      C2304   1.215   1_545  T
C1632      C2303   1.215       .  T
C1633      C1634   1.195       .  T
C1635      C1636   1.202       .  T
C1637      C1638   1.216       .  T
C1639      C1640   1.210       .  T
C1643      C2316   1.215       .  T
C1644      C2315   1.215       .  T
C1645      C1889   1.417       .  S
C1645      C1646   1.196       .  T
C1647      C1648   1.210       .  T
C1649      C1650   1.210       .  T
C1653      C1654   1.196       .  T
C1655      C1656   1.215       .  T
C1657      C1658   1.210       .  T
C1659      C1660   1.210       .  T
C1661      C1662   1.202       .  T
C1663      C1664   1.216       .  T
C1664      C1938   1.451       .  S
C1665      C2338   1.215       .  T
C1666      C2337   1.215       .  T
C1667      C1668   1.196       .  T
C1669      C1670   1.210       .  T
C1671      C1672   1.211       .  T
C1677      C2350   1.215   1_545  T
C1678      C2349   1.215       .  T
C1679      C1680   1.196       .  T
Fe1681     O1697   2.044       .  S
Fe1681     O1687   2.073       .  S
Fe1681     O1694   2.081       .  S
Fe1681     O1686   2.044       .  S
Fe1681     O1692   1.960       .  S
Fe1682     O1685   2.077       .  S
Fe1682     O1689   2.130       .  S
Fe1682     O1693   2.077       .  S
Fe1682     O1698   2.114       .  S
Fe1682     O1692   1.951       .  S
Fe1683     O1701   2.073       .  S
Fe1683     O1688   2.033       .  S
Fe1683     O1695   2.038       .  S
Fe1683     O1684   2.073       .  S
Fe1683     O1692   1.953       .  S
O1684      C1691   1.271       .  A
O1685      C1699   1.271       .  A
O1686      C1691   1.267       .  A
O1687      C1690   1.268       .  A
O1688      C1700   1.262       .  A
O1689      C1702   1.284       .  A
C1690      O1695   1.259       .  A
C1690      C2011   1.426       .  S
C1691      C2015   1.417       .  S
O1693      C1696   1.266       .  A
O1694      C1696   1.267       .  A
C1696      C2013   1.450       .  S
O1697      C1702   1.269       .  A
O1698      C1700   1.279       .  A
C1699      O1701   1.269       .  A
C1699      C2008   1.443       .  S
C1700      C2005   1.440       .  S
C1702      C2010   1.449       .  S
Fe1703     O1719   2.045       .  S
Fe1703     O1709   2.073       .  S
Fe1703     O1716   2.082       .  S
Fe1703     O1708   2.044       .  S
Fe1703     O1714   1.961       .  S
Fe1704     O1707   2.076       .  S
Fe1704     O1711   2.130       .  S
Fe1704     O1715   2.076       .  S
Fe1704     O1720   2.113       .  S
Fe1704     O1714   1.952       .  S
Fe1705     O1723   2.072       .  S
Fe1705     O1710   2.033       .  S
Fe1705     O1717   2.038       .  S
Fe1705     O1706   2.071       .  S
Fe1705     O1714   1.954       .  S
O1706      C1713   1.271       .  A
O1707      C1721   1.271       .  A
O1708      C1713   1.267       .  A
O1709      C1712   1.268       .  A
O1710      C1722   1.262       .  A
O1711      C1724   1.284       .  A
C1712      O1717   1.259       .  A
C1712      C1998   1.426       .  S
C1713      C2003   1.417       .  S
O1715      C1718   1.266       .  A
O1716      C1718   1.267       .  A
C1718      C2001   1.450       .  S
O1719      C1724   1.269       .  A
O1720      C1722   1.279       .  A
C1721      O1723   1.268       .  A
C1721      C1995   1.442       .  S
C1722      C1994   1.440       .  S
C1724      C1999   1.450       .  S
Fe1725     O1741   2.045       .  S
Fe1725     O1731   2.073       .  S
Fe1725     O1738   2.081       .  S
Fe1725     O1730   2.044       .  S
Fe1725     O1736   1.961       .  S
Fe1726     O1729   2.076       .  S
Fe1726     O1733   2.130       .  S
Fe1726     O1737   2.076       .  S
Fe1726     O1742   2.114       .  S
Fe1726     O1736   1.952       .  S
Fe1727     O1745   2.073       .  S
Fe1727     O1732   2.033       .  S
Fe1727     O1739   2.038       .  S
Fe1727     O1728   2.071       .  S
Fe1727     O1736   1.954       .  S
O1728      C1735   1.271       .  A
O1729      C1743   1.271       .  A
O1730      C1735   1.267       .  A
O1731      C1734   1.268       .  A
O1732      C1744   1.262       .  A
O1733      C1746   1.284       .  A
C1734      O1739   1.259       .  A
C1734      C1997   1.426       .  S
C1735      C1989   1.417       .  S
O1737      C1740   1.266       .  A
O1738      C1740   1.267       .  A
C1740      C1988   1.450       .  S
O1741      C1746   1.269       .  A
O1742      C1744   1.279       .  A
C1743      O1745   1.268       .  A
C1743      C1985   1.442       .  S
C1744      C1983   1.440       .  S
C1746      C1991   1.450       .  S
Fe1747     O1763   2.044       .  S
Fe1747     O1753   2.074       .  S
Fe1747     O1760   2.081       .  S
Fe1747     O1752   2.044       .  S
Fe1747     O1758   1.961       .  S
Fe1748     O1751   2.077       .  S
Fe1748     O1755   2.129       .  S
Fe1748     O1759   2.077       .  S
Fe1748     O1764   2.113       .  S
Fe1748     O1758   1.952       .  S
Fe1749     O1767   2.072       .  S
Fe1749     O1754   2.034       .  S
Fe1749     O1761   2.038       .  S
Fe1749     O1750   2.072       .  S
Fe1749     O1758   1.953       .  S
O1750      C1757   1.271       .  A
O1751      C1765   1.271       .  A
O1752      C1757   1.267       .  A
O1753      C1756   1.267       .  A
O1754      C1766   1.262       .  A
O1755      C1768   1.284       .  A
C1756      O1761   1.259       .  A
C1756      C1977   1.426       .  S
C1757      C1982   1.417       .  S
O1759      C1762   1.266       .  A
O1760      C1762   1.267       .  A
C1762      C1979   1.450       .  S
O1763      C1768   1.269       .  A
O1764      C1766   1.279       .  A
C1765      O1767   1.268       .  A
C1765      C1975   1.442       .  S
C1766      C1993   1.440       .  S
C1768      C1987   1.449       .  S
Fe1769     O1785   2.045       .  S
Fe1769     O1775   2.074       .  S
Fe1769     O1782   2.082       .  S
Fe1769     O1774   2.044       .  S
Fe1769     O1780   1.961       .  S
Fe1770     O1773   2.076       .  S
Fe1770     O1777   2.131       .  S
Fe1770     O1781   2.076       .  S
Fe1770     O1786   2.114       .  S
Fe1770     O1780   1.952       .  S
Fe1771     O1789   2.072       .  S
Fe1771     O1776   2.033       .  S
Fe1771     O1783   2.038       .  S
Fe1771     O1772   2.071       .  S
Fe1771     O1780   1.954       .  S
O1772      C1779   1.271       .  A
O1773      C1787   1.271       .  A
O1774      C1779   1.267       .  A
O1775      C1778   1.268       .  A
O1776      C1788   1.262       .  A
O1777      C1790   1.284       .  A
C1778      O1783   1.259       .  A
C1778      C1971   1.426       .  S
C1779      C1970   1.417       .  S
O1781      C1784   1.266       .  A
O1782      C1784   1.267       .  A
C1784      C1967   1.450       .  S
O1785      C1790   1.269       .  A
O1786      C1788   1.279       .  A
C1787      O1789   1.268       .  A
C1787      C1986   1.442       .  S
C1788      C2006   1.440       .  S
C1790      C1973   1.450       .  S
Fe1791     O1807   2.044       .  S
Fe1791     O1797   2.075       .  S
Fe1791     O1804   2.083       .  S
Fe1791     O1796   2.043       .  S
Fe1791     O1802   1.961       .  S
Fe1792     O1795   2.077       .  S
Fe1792     O1799   2.129       .  S
Fe1792     O1803   2.077       .  S
Fe1792     O1808   2.112       .  S
Fe1792     O1802   1.952       .  S
Fe1793     O1811   2.072       .  S
Fe1793     O1798   2.034       .  S
Fe1793     O1805   2.038       .  S
Fe1793     O1794   2.072       .  S
Fe1793     O1802   1.953       .  S
O1795      C1809   1.271       .  A
O1797      C1800   1.268       .  A
O1798      C1810   1.262       .  A
O1799      C1812   1.284       .  A
C1800      O1805   1.259       .  A
C1800      C1965   1.426       .  S
C1801      C1969   1.417       .  S
O1803      C1806   1.267       .  A
O1804      C1806   1.267       .  A
C1806      C1964   1.451       .  S
O1807      C1812   1.269       .  A
O1808      C1810   1.279       .  A
C1809      O1811   1.268       .  A
C1809      C1961   1.442       .  S
C1810      C1959   1.440       .  S
C1812      C1980   1.449       .  S
Fe1813     O1829   2.044       .  S
Fe1813     O1819   2.074       .  S
Fe1813     O1826   2.083       .  S
Fe1813     O1818   2.043       .  S
Fe1813     O1824   1.961       .  S
Fe1814     O1817   2.077       .  S
Fe1814     O1821   2.129       .  S
Fe1814     O1825   2.077       .  S
Fe1814     O1830   2.112       .  S
Fe1814     O1824   1.952       .  S
Fe1815     O1833   2.072       .  S
Fe1815     O1820   2.034       .  S
Fe1815     O1827   2.038       .  S
Fe1815     O1816   2.072       .  S
Fe1815     O1824   1.953       .  S
O1816      C1823   1.271       .  A
O1817      C1831   1.271       .  A
O1818      C1823   1.267       .  A
O1819      C1822   1.268       .  A
O1820      C1832   1.262       .  A
O1821      C1834   1.284       .  A
C1822      O1827   1.259       .  A
C1822      C2012   1.426       .  S
C1823      C1955   1.417       .  S
O1825      C1828   1.267       .  A
O1826      C1828   1.267       .  A
C1828      C1974   1.451       .  S
O1829      C1834   1.269       .  A
O1830      C1832   1.279       .  A
C1831      O1833   1.268       .  A
C1831      C1976   1.442       .  S
C1832      C1954   1.440       .  S
C1834      C1957   1.449       .  S
Fe1835     O1851   2.044       .  S
Fe1835     O1841   2.075       .  S
Fe1835     O1848   2.083       .  S
Fe1835     O1840   2.044       .  S
Fe1835     O1846   1.961       .  S
Fe1836     O1839   2.077       .  S
Fe1836     O1843   2.128       .  S
Fe1836     O1847   2.077       .  S
Fe1836     O1852   2.113       .  S
Fe1836     O1846   1.952       .  S
Fe1837     O1855   2.073       .  S
Fe1837     O1842   2.034       .  S
Fe1837     O1849   2.037       .  S
Fe1837     O1838   2.073       .  S
Fe1837     O1846   1.953       .  S
O1838      C1845   1.271       .  A
O1839      C1853   1.271       .  A
O1840      C1845   1.267       .  A
O1841      C1844   1.268       .  A
O1842      C1854   1.262       .  A
O1843      C1856   1.284       .  A
C1844      O1849   1.259       .  A
C1844      C1951   1.426       .  S
C1845      C2004   1.418       .  S
O1847      C1850   1.267       .  A
O1848      C1850   1.267       .  A
C1850      C1992   1.451       .  S
O1851      C1856   1.269       .  A
O1852      C1854   1.279       .  A
C1853      O1855   1.268       .  A
C1853      C1949   1.443       .  S
C1854      C1953   1.440       .  S
C1856      C2014   1.449       .  S
Fe1857     O1863   2.074       .  S
Fe1857     O1870   2.082       .  S
Fe1857     O1862   2.044       .  S
Fe1857     O1868   1.961       .  S
Fe1858     O1861   2.076       .  S
Fe1858     O1865   2.130       .  S
Fe1858     O1869   2.076   1_556  S
Fe1858     O1874   2.114   1_556  S
Fe1859     O1877   2.072       .  S
Fe1859     O1864   2.033       .  S
Fe1859     O1871   2.038       .  S
Fe1859     O1860   2.071       .  S
Fe1859     O1868   1.954       .  S
O1860      C1867   1.271       .  A
O1861      C1875   1.271       .  A
O1862      C1867   1.267       .  A
O1863      C1866   1.268       .  A
O1864      C1876   1.262       .  A
O1865      C1878   1.284       .  A
C1866      O1871   1.259       .  A
C1866      C1972   1.426       .  S
C1867      C1956   1.417       .  S
O1870      C1872   1.267       .  A
C1872      C2009   1.450       .  S
O1873      C1878   1.269       .  A
C1875      C1996   1.442       .  S
C1876      C1948   1.440       .  S
C1878      C1963   1.450       .  S
Fe1879     O1895   2.044       .  S
Fe1879     O1885   2.073       .  S
Fe1879     O1892   2.082       .  S
Fe1879     O1884   2.044       .  S
Fe1879     O1890   1.961       .  S
Fe1880     O1883   2.077       .  S
Fe1880     O1887   2.130       .  S
Fe1880     O1891   2.077       .  S
Fe1880     O1896   2.114       .  S
Fe1880     O1890   1.952       .  S
Fe1881     O1899   2.074       .  S
Fe1881     O1886   2.033       .  S
Fe1881     O1893   2.038       .  S
Fe1881     O1882   2.072       .  S
Fe1881     O1890   1.953       .  S
O1882      C1889   1.271       .  A
O1883      C1897   1.271       .  A
O1884      C1889   1.267       .  A
O1885      C1888   1.268       .  A
O1886      C1898   1.262       .  A
O1887      C1900   1.284       .  A
C1888      O1893   1.259       .  A
C1888      C1966   1.426       .  S
O1891      C1894   1.266       .  A
O1892      C1894   1.267       .  A
C1894      C1945   1.450       .  S
O1895      C1900   1.269       .  A
O1896      C1898   1.279       .  A
C1897      O1899   1.269       .  A
C1897      C1950   1.443       .  S
C1898      C1947   1.440       .  S
C1900      C1968   1.450       .  S
Fe1901     O1917   2.044       .  S
Fe1901     O1907   2.073       .  S
Fe1901     O1914   2.082       .  S
Fe1901     O1906   2.044       .  S
Fe1901     O1912   1.961       .  S
Fe1902     O1905   2.077       .  S
Fe1902     O1909   2.130       .  S
Fe1902     O1913   2.076       .  S
Fe1902     O1918   2.113       .  S
Fe1902     O1912   1.952       .  S
Fe1903     O1921   2.072       .  S
Fe1903     O1908   2.034       .  S
Fe1903     O1915   2.038       .  S
Fe1903     O1904   2.072       .  S
Fe1903     O1912   1.953       .  S
O1904      C1911   1.271       .  A
O1905      C1919   1.271       .  A
O1906      C1911   1.267       .  A
O1907      C1910   1.268       .  A
O1908      C1920   1.262       .  A
O1909      C1922   1.284       .  A
C1910      O1915   1.259       .  A
C1910      C1952   1.426       .  S
C1911      C2016   1.417       .  S
O1913      C1916   1.266       .  A
O1914      C1916   1.267       .  A
C1916      C1958   1.450       .  S
O1917      C1922   1.269       .  A
O1918      C1920   1.279       .  A
C1919      O1921   1.268       .  A
C1919      C1962   1.442       .  S
C1920      C1984   1.440       .  S
C1922      C2002   1.449       .  S
Fe1923     O1929   2.074       .  S
Fe1923     O1936   2.083       .  S
Fe1923     O1928   2.044       .  S
Fe1923     O1934   1.961       .  S
Fe1924     O1927   2.077       .  S
Fe1924     O1931   2.129       .  S
Fe1924     O1935   2.077       .  S
Fe1924     O1940   2.113       .  S
Fe1925     O1930   2.034       .  S
Fe1925     O1937   2.038       .  S
Fe1925     O1926   2.072       .  S
Fe1925     O1934   1.953       .  S
O1926      C1933   1.271       .  A
O1927      C1941   1.271       .  A
O1928      C1933   1.267       .  A
O1929      C1932   1.268       .  A
O1930      C1942   1.262       .  A
O1931      C1944   1.284       .  A
C1932      O1937   1.259       .  A
C1932      C1978   1.426       .  S
C1933      C1990   1.418       .  S
O1935      C1938   1.267       .  A
O1939      C1944   1.269       .  A
C1941      O1943   1.268       .  A
C1941      C2007   1.443       .  S
C1942      C1960   1.440       .  S
C1944      C1946   1.449       .  S
C1947      C1948   1.210       .  T
C1949      C1950   1.211       .  T
C1951      C2624   1.202       .  T
C1952      C2623   1.202       .  T
C1953      C1954   1.209       .  T
C1955      C1956   1.195       .  T
C1959      C1960   1.209       .  T
C1961      C1962   1.210       .  T
C1963      C1964   1.216       .  T
C1965      C2302   1.202   1_556  T
C1966      C2301   1.202       .  T
C1967      C2640   1.215   1_545  T
C1968      C2639   1.215       .  T
C1969      C1970   1.195       .  T
C1971      C1972   1.202       .  T
C1973      C1974   1.216       .  T
C1975      C1976   1.210       .  T
C1979      C2652   1.215       .  T
C1980      C2651   1.215       .  T
C1981      C1982   1.196       .  T
C1983      C1984   1.210       .  T
C1985      C1986   1.210       .  T
C1989      C1990   1.196       .  T
C1991      C1992   1.215       .  T
C1993      C1994   1.210       .  T
C1995      C1996   1.210       .  T
C1997      C1998   1.202       .  T
C1999      C2000   1.216       .  T
C2001      C2674   1.215       .  T
C2002      C2673   1.215       .  T
C2003      C2004   1.196       .  T
C2005      C2006   1.210       .  T
C2007      C2008   1.211       .  T
C2013      C2686   1.215   1_545  T
C2014      C2685   1.215       .  T
C2015      C2016   1.196       .  T
Fe2017     O2033   2.044       .  S
Fe2017     O2023   2.073       .  S
Fe2017     O2030   2.081       .  S
Fe2017     O2022   2.044       .  S
Fe2017     O2028   1.960       .  S
Fe2018     O2021   2.077       .  S
Fe2018     O2025   2.130       .  S
Fe2018     O2029   2.077       .  S
Fe2018     O2034   2.114       .  S
Fe2018     O2028   1.951       .  S
Fe2019     O2037   2.073       .  S
Fe2019     O2024   2.033       .  S
Fe2019     O2031   2.038       .  S
Fe2019     O2020   2.073       .  S
Fe2019     O2028   1.953       .  S
O2020      C2027   1.271       .  A
O2021      C2035   1.271       .  A
O2022      C2027   1.267       .  A
O2023      C2026   1.268       .  A
O2024      C2036   1.262       .  A
O2025      C2038   1.284       .  A
C2026      O2031   1.259       .  A
C2026      C2347   1.426       .  S
C2027      C2351   1.417       .  S
O2029      C2032   1.266       .  A
O2030      C2032   1.267       .  A
C2032      C2349   1.450       .  S
O2033      C2038   1.269       .  A
O2034      C2036   1.279       .  A
C2035      O2037   1.269       .  A
C2035      C2344   1.443       .  S
C2036      C2341   1.440       .  S
C2038      C2346   1.449       .  S
Fe2039     O2055   2.045       .  S
Fe2039     O2045   2.073       .  S
Fe2039     O2052   2.082       .  S
Fe2039     O2044   2.044       .  S
Fe2039     O2050   1.961       .  S
Fe2040     O2043   2.076       .  S
Fe2040     O2047   2.130       .  S
Fe2040     O2051   2.076       .  S
Fe2040     O2056   2.113       .  S
Fe2040     O2050   1.952       .  S
Fe2041     O2059   2.072       .  S
Fe2041     O2046   2.033       .  S
Fe2041     O2053   2.038       .  S
Fe2041     O2042   2.071       .  S
Fe2041     O2050   1.954       .  S
O2042      C2049   1.271       .  A
O2043      C2057   1.271       .  A
O2044      C2049   1.267       .  A
O2045      C2048   1.268       .  A
O2046      C2058   1.262       .  A
O2047      C2060   1.284       .  A
C2048      O2053   1.259       .  A
C2048      C2334   1.426       .  S
C2049      C2339   1.417       .  S
O2051      C2054   1.266       .  A
O2052      C2054   1.267       .  A
C2054      C2337   1.450   1_565  S
O2055      C2060   1.269       .  A
O2056      C2058   1.279       .  A
C2057      O2059   1.268       .  A
C2057      C2331   1.442       .  S
C2058      C2330   1.440       .  S
C2060      C2335   1.450       .  S
Fe2061     O2077   2.045       .  S
Fe2061     O2067   2.073       .  S
Fe2061     O2074   2.081       .  S
Fe2061     O2066   2.044       .  S
Fe2061     O2072   1.961       .  S
Fe2062     O2065   2.076       .  S
Fe2062     O2069   2.130       .  S
Fe2062     O2073   2.076       .  S
Fe2062     O2078   2.114       .  S
Fe2062     O2072   1.952       .  S
Fe2063     O2081   2.073       .  S
Fe2063     O2068   2.033       .  S
Fe2063     O2075   2.038       .  S
Fe2063     O2064   2.071       .  S
Fe2063     O2072   1.954       .  S
O2064      C2071   1.271       .  A
O2065      C2079   1.271       .  A
O2066      C2071   1.267       .  A
O2067      C2070   1.268       .  A
O2068      C2080   1.262       .  A
O2069      C2082   1.284       .  A
C2070      O2075   1.259       .  A
C2070      C2333   1.426       .  S
C2071      C2325   1.417       .  S
O2073      C2076   1.266       .  A
O2074      C2076   1.267       .  A
C2076      C2324   1.450       .  S
O2077      C2082   1.269       .  A
O2078      C2080   1.279       .  A
C2079      O2081   1.268       .  A
C2079      C2321   1.443       .  S
C2080      C2319   1.440       .  S
C2082      C2327   1.450       .  S
Fe2083     O2099   2.044       .  S
Fe2083     O2089   2.074       .  S
Fe2083     O2096   2.081       .  S
Fe2083     O2088   2.044       .  S
Fe2083     O2094   1.961       .  S
Fe2084     O2087   2.077       .  S
Fe2084     O2091   2.129       .  S
Fe2084     O2095   2.077       .  S
Fe2084     O2100   2.113       .  S
Fe2084     O2094   1.952       .  S
Fe2085     O2103   2.072       .  S
Fe2085     O2090   2.034       .  S
Fe2085     O2097   2.038       .  S
Fe2085     O2086   2.072       .  S
Fe2085     O2094   1.953       .  S
O2086      C2093   1.271       .  A
O2087      C2101   1.271       .  A
O2088      C2093   1.267       .  A
O2089      C2092   1.267       .  A
O2090      C2102   1.262       .  A
O2091      C2104   1.284       .  A
C2092      O2097   1.259       .  A
C2092      C2313   1.426       .  S
C2093      C2318   1.417       .  S
O2095      C2098   1.266       .  A
O2096      C2098   1.267       .  A
C2098      C2315   1.450   1_565  S
O2099      C2104   1.269       .  A
O2100      C2102   1.279       .  A
C2101      O2103   1.268       .  A
C2101      C2311   1.442       .  S
C2102      C2329   1.440       .  S
C2104      C2323   1.449       .  S
Fe2105     O2121   2.045       .  S
Fe2105     O2111   2.074       .  S
Fe2105     O2118   2.082       .  S
Fe2105     O2110   2.044       .  S
Fe2105     O2116   1.961       .  S
Fe2106     O2109   2.076       .  S
Fe2106     O2113   2.131       .  S
Fe2106     O2117   2.076       .  S
Fe2106     O2122   2.114       .  S
Fe2106     O2116   1.952       .  S
Fe2107     O2125   2.072       .  S
Fe2107     O2112   2.033       .  S
Fe2107     O2119   2.038       .  S
Fe2107     O2108   2.071       .  S
Fe2107     O2116   1.954       .  S
O2108      C2115   1.271       .  A
O2109      C2123   1.271       .  A
O2110      C2115   1.267       .  A
O2111      C2114   1.268       .  A
O2112      C2124   1.262       .  A
O2113      C2126   1.284       .  A
C2114      O2119   1.259       .  A
C2114      C2307   1.426       .  S
C2115      C2306   1.417       .  S
O2117      C2120   1.266       .  A
O2118      C2120   1.267       .  A
C2120      C2303   1.450       .  S
O2121      C2126   1.269       .  A
O2122      C2124   1.279       .  A
C2123      O2125   1.268       .  A
C2123      C2322   1.443       .  S
C2124      C2342   1.440       .  S
C2126      C2309   1.450       .  S
Fe2127     O2143   2.044       .  S
Fe2127     O2133   2.075       .  S
Fe2127     O2140   2.083       .  S
Fe2127     O2132   2.043       .  S
Fe2127     O2138   1.961       .  S
Fe2128     O2131   2.077       .  S
Fe2128     O2135   2.129       .  S
Fe2128     O2139   2.077       .  S
Fe2128     O2144   2.112       .  S
Fe2128     O2138   1.952       .  S
Fe2129     O2147   2.072       .  S
Fe2129     O2134   2.034       .  S
Fe2129     O2141   2.038       .  S
Fe2129     O2130   2.072       .  S
Fe2129     O2138   1.953       .  S
O2130      C2473   1.271       .  A
O2131      C2145   1.271       .  A
O2132      C2473   1.267       .  A
O2133      C2136   1.268       .  A
O2134      C2146   1.262       .  A
O2135      C2148   1.284       .  A
C2136      O2141   1.259       .  A
C2136      C2301   1.426       .  S
C2137      O2466   1.271   1_554  A
C2137      O2468   1.267   1_554  A
C2137      C2305   1.417       .  S
O2139      C2142   1.267       .  A
O2140      C2142   1.267       .  A
C2142      C2300   1.451       .  S
O2143      C2148   1.269       .  A
O2144      C2146   1.279       .  A
C2145      O2147   1.268       .  A
C2145      C2297   1.442       .  S
C2146      C2295   1.440       .  S
C2148      C2316   1.449       .  S
Fe2149     O2165   2.044       .  S
Fe2149     O2155   2.074       .  S
Fe2149     O2162   2.083       .  S
Fe2149     O2154   2.043       .  S
Fe2149     O2160   1.961       .  S
Fe2150     O2153   2.077       .  S
Fe2150     O2157   2.129       .  S
Fe2150     O2161   2.077       .  S
Fe2150     O2166   2.112       .  S
Fe2150     O2160   1.952       .  S
Fe2151     O2169   2.072       .  S
Fe2151     O2156   2.034       .  S
Fe2151     O2163   2.038       .  S
Fe2151     O2152   2.072       .  S
Fe2151     O2160   1.953       .  S
O2152      C2159   1.271       .  A
O2153      C2167   1.271       .  A
O2154      C2159   1.267       .  A
O2155      C2158   1.268       .  A
O2156      C2168   1.262       .  A
O2157      C2170   1.284       .  A
C2158      O2163   1.259       .  A
C2158      C2348   1.426       .  S
C2159      C2291   1.417       .  S
O2161      C2164   1.267       .  A
O2162      C2164   1.267       .  A
C2164      C2310   1.451       .  S
O2165      C2170   1.269       .  A
O2166      C2168   1.279       .  A
C2167      O2169   1.268       .  A
C2167      C2312   1.442       .  S
C2168      C2290   1.440       .  S
C2170      C2293   1.449       .  S
Fe2171     O2187   2.044       .  S
Fe2171     O2177   2.075       .  S
Fe2171     O2184   2.083       .  S
Fe2171     O2176   2.044       .  S
Fe2171     O2182   1.961       .  S
Fe2172     O2175   2.077       .  S
Fe2172     O2179   2.128       .  S
Fe2172     O2183   2.077       .  S
Fe2172     O2188   2.113       .  S
Fe2172     O2182   1.952       .  S
Fe2173     O2191   2.073       .  S
Fe2173     O2178   2.034       .  S
Fe2173     O2185   2.037       .  S
Fe2173     O2174   2.073       .  S
Fe2173     O2182   1.953       .  S
O2174      C2181   1.271       .  A
O2175      C2189   1.271       .  A
O2176      C2181   1.267       .  A
O2177      C2180   1.268       .  A
O2178      C2190   1.262       .  A
O2179      C2192   1.284       .  A
C2180      O2185   1.259       .  A
C2180      C2287   1.426   1_565  S
C2181      C2340   1.418       .  S
O2183      C2186   1.267       .  A
O2184      C2186   1.267       .  A
C2186      C2328   1.451       .  S
O2187      C2192   1.269       .  A
O2188      C2190   1.279       .  A
C2189      O2191   1.268       .  A
C2189      C2285   1.443       .  S
C2190      C2289   1.440       .  S
C2192      C2350   1.449       .  S
Fe2193     O2545   2.045   1_554  S
Fe2193     O2199   2.074       .  S
Fe2193     O2206   2.082       .  S
Fe2193     O2198   2.044       .  S
Fe2193     O2204   1.961       .  S
Fe2194     O2197   2.076       .  S
Fe2194     O2201   2.130       .  S
Fe2194     O2205   2.076       .  S
Fe2194     O2210   2.114       .  S
Fe2194     O2540   1.952       .  S
Fe2195     O2213   2.072       .  S
Fe2195     O2200   2.033       .  S
Fe2195     O2207   2.038       .  S
Fe2195     O2196   2.071       .  S
Fe2195     O2204   1.954       .  S
O2196      C2203   1.271       .  A
O2197      C2211   1.271       .  A
O2198      C2203   1.267       .  A
O2199      C2202   1.268       .  A
O2200      C2212   1.262       .  A
O2201      C2214   1.284       .  A
C2202      O2207   1.259       .  A
C2202      C2308   1.426       .  S
C2203      C2292   1.417       .  S
O2204     Fe2530   1.952   1_554  S
O2205      C2544   1.266       .  A
O2206      C2208   1.267       .  A
C2208      O2541   1.266       .  A
C2208      C2345   1.450       .  S
O2209     Fe2529   2.045       .  S
O2209      C2214   1.269       .  A
O2210      C2548   1.279       .  A
C2211      O2549   1.268       .  A
C2211      C2332   1.442       .  S
C2212      O2546   1.279       .  A
C2212      C2284   1.440       .  S
O2213      C2547   1.268   1_554  A
C2214      C2299   1.450       .  S
Fe2215     O2231   2.044       .  S
Fe2215     O2221   2.073       .  S
Fe2215     O2228   2.082       .  S
Fe2215     O2220   2.044       .  S
Fe2215     O2226   1.961       .  S
Fe2216     O2219   2.077       .  S
Fe2216     O2223   2.130       .  S
Fe2216     O2227   2.077       .  S
Fe2216     O2232   2.114       .  S
Fe2216     O2226   1.952       .  S
Fe2217     O2235   2.074       .  S
Fe2217     O2222   2.033       .  S
Fe2217     O2229   2.038       .  S
Fe2217     O2218   2.072       .  S
Fe2217     O2226   1.953       .  S
O2218      C2225   1.271       .  A
O2219      C2233   1.271       .  A
O2220      C2225   1.267       .  A
O2221      C2224   1.268       .  A
O2222      C2234   1.262       .  A
O2223      C2236   1.284       .  A
C2224      O2229   1.259       .  A
C2224      C2302   1.426   1_565  S
C2225      C2653   1.417   1_554  S
O2227      C2230   1.266       .  A
O2228      C2230   1.267       .  A
C2230      C2281   1.450       .  S
O2231      C2236   1.269       .  A
O2232      C2234   1.279       .  A
C2233      O2235   1.269       .  A
C2233      C2286   1.443       .  S
C2234      C2283   1.440       .  S
C2236      C2304   1.450       .  S
Fe2237     O2253   2.044       .  S
Fe2237     O2243   2.073       .  S
Fe2237     O2250   2.082       .  S
Fe2237     O2242   2.044       .  S
Fe2237     O2248   1.961       .  S
Fe2238     O2241   2.077       .  S
Fe2238     O2245   2.130       .  S
Fe2238     O2249   2.076       .  S
Fe2238     O2254   2.113       .  S
Fe2238     O2248   1.951       .  S
Fe2239     O2257   2.072       .  S
Fe2239     O2244   2.034       .  S
Fe2239     O2251   2.038       .  S
Fe2239     O2240   2.072       .  S
Fe2239     O2248   1.953       .  S
O2240      C2247   1.271       .  A
O2241      C2255   1.271       .  A
O2242      C2247   1.267       .  A
O2243      C2246   1.268       .  A
O2244      C2256   1.262       .  A
O2245      C2258   1.284       .  A
C2246      O2251   1.259       .  A
C2246      C2288   1.426       .  S
C2247      C2352   1.417       .  S
O2249      C2252   1.266       .  A
O2250      C2252   1.267       .  A
C2252      C2294   1.450       .  S
O2253      C2258   1.269       .  A
O2254      C2256   1.279       .  A
C2255      O2257   1.268       .  A
C2255      C2298   1.442       .  S
C2256      C2320   1.440       .  S
C2258      C2338   1.449       .  S
Fe2259     O2611   2.044       .  S
Fe2259     O2265   2.074       .  S
Fe2259     O2272   2.083       .  S
Fe2259     O2264   2.044       .  S
Fe2259     O2270   1.961       .  S
Fe2260     O2263   2.077       .  S
Fe2260     O2267   2.129       .  S
Fe2260     O2271   2.077       .  S
Fe2260     O2276   2.113   1_554  S
Fe2260     O2606   1.952   1_554  S
Fe2261     O2615   2.073       .  S
Fe2261     O2266   2.034       .  S
Fe2261     O2273   2.038       .  S
Fe2261     O2262   2.072       .  S
Fe2261     O2270   1.953       .  S
O2262      C2269   1.271       .  A
O2263      C2277   1.271       .  A
O2264      C2269   1.267       .  A
O2265      C2268   1.268       .  A
O2266      C2278   1.262       .  A
O2267      C2280   1.284       .  A
C2268      O2273   1.259       .  A
C2268      C2314   1.426       .  S
C2269      C2326   1.418       .  S
O2270     Fe2596   1.952       .  S
O2271      C2274   1.267   1_554  A
O2272      C2610   1.267       .  A
C2274      O2608   1.267       .  A
C2274      C2672   1.451       .  S
O2275     Fe2595   2.044   1_554  S
O2275      C2280   1.269       .  A
O2276      C2614   1.279       .  A
C2277      O2279   1.268   1_554  A
C2277      C2343   1.443       .  S
C2278      O2612   1.279       .  A
C2278      C2296   1.440       .  S
O2279     Fe2597   2.073       .  S
C2280      C2282   1.449       .  S
C2283      C2284   1.210       .  T
C2285      C2286   1.211       .  T
C2289      C2290   1.209       .  T
C2291      C2292   1.195       .  T
C2295      C2296   1.210       .  T
C2297      C2298   1.210       .  T
C2299      C2300   1.216       .  T
C2305      C2306   1.195       .  T
C2307      C2308   1.202       .  T
C2309      C2310   1.216       .  T
C2311      C2312   1.210       .  T
C2317      C2561   1.417       .  S
C2317      C2318   1.196       .  T
C2319      C2320   1.210       .  T
C2321      C2322   1.210       .  T
C2325      C2326   1.196       .  T
C2327      C2328   1.215       .  T
C2329      C2330   1.210       .  T
C2331      C2332   1.210       .  T
C2333      C2334   1.202       .  T
C2335      C2336   1.216       .  T
C2336      C2610   1.451       .  S
C2339      C2340   1.196       .  T
C2341      C2342   1.210       .  T
C2343      C2344   1.211       .  T
C2351      C2352   1.196       .  T
Fe2353     O2369   2.044       .  S
Fe2353     O2359   2.073       .  S
Fe2353     O2366   2.081       .  S
Fe2353     O2358   2.044       .  S
Fe2353     O2364   1.960       .  S
Fe2354     O2357   2.077       .  S
Fe2354     O2361   2.130       .  S
Fe2354     O2365   2.077       .  S
Fe2354     O2370   2.114       .  S
Fe2354     O2364   1.951       .  S
Fe2355     O2373   2.073       .  S
Fe2355     O2360   2.033       .  S
Fe2355     O2367   2.038       .  S
Fe2355     O2356   2.073       .  S
Fe2355     O2364   1.953       .  S
O2356      C2363   1.271       .  A
O2357      C2371   1.271       .  A
O2358      C2363   1.267       .  A
O2359      C2362   1.268       .  A
O2360      C2372   1.262       .  A
O2361      C2374   1.284       .  A
C2362      O2367   1.259       .  A
C2362      C2683   1.426       .  S
C2363      C2687   1.417       .  S
O2365      C2368   1.266       .  A
O2366      C2368   1.267       .  A
C2368      C2685   1.450       .  S
O2369      C2374   1.269       .  A
O2370      C2372   1.279       .  A
C2371      O2373   1.269       .  A
C2371      C2680   1.443       .  S
C2372      C2677   1.440       .  S
C2374      C2682   1.449       .  S
Fe2375     O2391   2.045       .  S
Fe2375     O2381   2.073       .  S
Fe2375     O2388   2.082       .  S
Fe2375     O2380   2.044       .  S
Fe2375     O2386   1.961       .  S
Fe2376     O2379   2.076       .  S
Fe2376     O2383   2.130       .  S
Fe2376     O2387   2.076       .  S
Fe2376     O2392   2.113       .  S
Fe2376     O2386   1.952       .  S
Fe2377     O2395   2.072       .  S
Fe2377     O2382   2.033       .  S
Fe2377     O2389   2.038       .  S
Fe2377     O2378   2.071       .  S
Fe2377     O2386   1.954       .  S
O2378      C2385   1.271       .  A
O2379      C2393   1.271       .  A
O2380      C2385   1.267       .  A
O2381      C2384   1.268       .  A
O2382      C2394   1.262       .  A
O2383      C2396   1.284       .  A
C2384      O2389   1.259       .  A
C2384      C2670   1.426       .  S
C2385      C2675   1.417       .  S
O2387      C2390   1.266       .  A
O2388      C2390   1.267       .  A
C2390      C2673   1.450   1_565  S
O2391      C2396   1.269       .  A
O2392      C2394   1.279       .  A
C2393      O2395   1.268       .  A
C2393      C2667   1.442       .  S
C2394      C2666   1.440       .  S
C2396      C2671   1.450       .  S
Fe2397     O2413   2.045       .  S
Fe2397     O2403   2.073       .  S
Fe2397     O2410   2.081       .  S
Fe2397     O2402   2.044       .  S
Fe2397     O2408   1.961       .  S
Fe2398     O2401   2.076       .  S
Fe2398     O2405   2.130       .  S
Fe2398     O2409   2.076       .  S
Fe2398     O2414   2.114       .  S
Fe2398     O2408   1.952       .  S
Fe2399     O2417   2.073       .  S
Fe2399     O2404   2.033       .  S
Fe2399     O2411   2.038       .  S
Fe2399     O2400   2.071       .  S
Fe2399     O2408   1.954       .  S
O2400      C2407   1.271       .  A
O2401      C2415   1.271       .  A
O2402      C2407   1.267       .  A
O2403      C2406   1.268       .  A
O2404      C2416   1.262       .  A
O2405      C2418   1.284       .  A
C2406      O2411   1.259       .  A
C2406      C2669   1.426       .  S
C2407      C2661   1.417       .  S
O2409      C2412   1.266       .  A
O2410      C2412   1.267       .  A
C2412      C2660   1.450       .  S
O2413      C2418   1.269       .  A
O2414      C2416   1.279       .  A
C2415      O2417   1.268       .  A
C2415      C2657   1.443       .  S
C2416      C2655   1.440       .  S
C2418      C2663   1.450       .  S
Fe2419     O2435   2.044       .  S
Fe2419     O2425   2.074       .  S
Fe2419     O2432   2.081       .  S
Fe2419     O2424   2.044       .  S
Fe2419     O2430   1.961       .  S
Fe2420     O2423   2.077       .  S
Fe2420     O2427   2.129       .  S
Fe2420     O2431   2.077       .  S
Fe2420     O2436   2.113       .  S
Fe2420     O2430   1.952       .  S
Fe2421     O2439   2.072       .  S
Fe2421     O2426   2.034       .  S
Fe2421     O2433   2.038       .  S
Fe2421     O2422   2.072       .  S
Fe2421     O2430   1.953       .  S
O2422      C2429   1.271       .  A
O2423      C2437   1.271       .  A
O2424      C2429   1.267       .  A
O2425      C2428   1.267       .  A
O2426      C2438   1.262       .  A
O2427      C2440   1.284       .  A
C2428      O2433   1.259       .  A
C2428      C2649   1.426       .  S
C2429      C2654   1.417       .  S
O2431      C2434   1.266       .  A
O2432      C2434   1.267       .  A
C2434      C2651   1.450   1_565  S
O2435      C2440   1.269       .  A
O2436      C2438   1.279       .  A
C2437      O2439   1.268       .  A
C2437      C2647   1.442       .  S
C2438      C2665   1.440       .  S
C2440      C2659   1.449       .  S
Fe2441     O2457   2.045       .  S
Fe2441     O2447   2.074       .  S
Fe2441     O2454   2.082       .  S
Fe2441     O2446   2.044       .  S
Fe2441     O2452   1.961       .  S
Fe2442     O2445   2.076       .  S
Fe2442     O2449   2.131       .  S
Fe2442     O2453   2.076       .  S
Fe2442     O2458   2.114       .  S
Fe2442     O2452   1.952       .  S
Fe2443     O2461   2.072       .  S
Fe2443     O2448   2.033       .  S
Fe2443     O2455   2.038       .  S
Fe2443     O2444   2.071       .  S
Fe2443     O2452   1.954       .  S
O2444      C2451   1.271       .  A
O2445      C2459   1.271       .  A
O2446      C2451   1.267       .  A
O2447      C2450   1.268       .  A
O2448      C2460   1.262       .  A
O2449      C2462   1.284       .  A
C2450      O2455   1.259       .  A
C2450      C2643   1.426       .  S
C2451      C2642   1.417       .  S
O2453      C2456   1.266       .  A
O2454      C2456   1.267       .  A
C2456      C2639   1.450       .  S
O2457      C2462   1.269       .  A
O2458      C2460   1.279       .  A
C2459      O2461   1.268       .  A
C2459      C2658   1.443       .  S
C2460      C2678   1.440       .  S
C2462      C2645   1.450       .  S
Fe2463     O2479   2.044       .  S
Fe2463     O2469   2.075       .  S
Fe2463     O2476   2.083       .  S
Fe2463     O2468   2.043       .  S
Fe2463     O2474   1.961       .  S
Fe2464     O2467   2.077       .  S
Fe2464     O2471   2.129       .  S
Fe2464     O2475   2.077       .  S
Fe2464     O2480   2.112       .  S
Fe2464     O2474   1.952       .  S
Fe2465     O2483   2.072       .  S
Fe2465     O2470   2.034       .  S
Fe2465     O2477   2.038       .  S
Fe2465     O2466   2.072       .  S
Fe2465     O2474   1.953       .  S
O2467      C2481   1.271       .  A
O2469      C2472   1.268       .  A
O2470      C2482   1.262       .  A
O2471      C2484   1.284       .  A
C2472      O2477   1.259       .  A
C2472      C2637   1.426       .  S
C2473      C2641   1.417       .  S
O2475      C2478   1.267       .  A
O2476      C2478   1.267       .  A
C2478      C2636   1.451       .  S
O2479      C2484   1.269       .  A
O2480      C2482   1.279       .  A
C2481      O2483   1.268       .  A
C2481      C2633   1.442       .  S
C2482      C2631   1.440       .  S
C2484      C2652   1.449       .  S
Fe2485     O2501   2.044       .  S
Fe2485     O2491   2.074       .  S
Fe2485     O2498   2.083       .  S
Fe2485     O2490   2.043       .  S
Fe2485     O2496   1.961       .  S
Fe2486     O2489   2.077       .  S
Fe2486     O2493   2.129       .  S
Fe2486     O2497   2.077       .  S
Fe2486     O2502   2.112       .  S
Fe2486     O2496   1.952       .  S
Fe2487     O2505   2.072       .  S
Fe2487     O2492   2.034       .  S
Fe2487     O2499   2.038       .  S
Fe2487     O2488   2.072       .  S
Fe2487     O2496   1.953       .  S
O2488      C2495   1.271       .  A
O2489      C2503   1.271       .  A
O2490      C2495   1.267       .  A
O2491      C2494   1.268       .  A
O2492      C2504   1.262       .  A
O2493      C2506   1.284       .  A
C2494      O2499   1.259       .  A
C2494      C2684   1.426       .  S
C2495      C2627   1.417       .  S
O2497      C2500   1.267       .  A
O2498      C2500   1.267       .  A
C2500      C2646   1.451       .  S
O2501      C2506   1.269       .  A
O2502      C2504   1.279       .  A
C2503      O2505   1.268       .  A
C2503      C2648   1.442       .  S
C2504      C2626   1.440       .  S
C2506      C2629   1.449       .  S
Fe2507     O2523   2.044       .  S
Fe2507     O2513   2.075       .  S
Fe2507     O2520   2.083       .  S
Fe2507     O2512   2.044       .  S
Fe2507     O2518   1.961       .  S
Fe2508     O2511   2.077       .  S
Fe2508     O2515   2.128       .  S
Fe2508     O2519   2.077       .  S
Fe2508     O2524   2.113       .  S
Fe2508     O2518   1.952       .  S
Fe2509     O2527   2.073       .  S
Fe2509     O2514   2.034       .  S
Fe2509     O2521   2.037       .  S
Fe2509     O2510   2.073       .  S
Fe2509     O2518   1.953       .  S
O2510      C2517   1.271       .  A
O2511      C2525   1.271       .  A
O2512      C2517   1.267       .  A
O2513      C2516   1.268       .  A
O2514      C2526   1.262       .  A
O2515      C2528   1.284       .  A
C2516      O2521   1.259       .  A
C2516      C2623   1.426   1_565  S
C2517      C2676   1.418       .  S
O2519      C2522   1.267       .  A
O2520      C2522   1.267       .  A
C2522      C2664   1.451       .  S
O2523      C2528   1.269       .  A
O2524      C2526   1.279       .  A
C2525      O2527   1.268       .  A
C2525      C2621   1.443       .  S
C2526      C2625   1.440       .  S
C2528      C2686   1.449       .  S
Fe2529     O2535   2.074       .  S
Fe2529     O2542   2.082       .  S
Fe2529     O2534   2.044       .  S
Fe2529     O2540   1.961       .  S
Fe2530     O2533   2.076       .  S
Fe2530     O2537   2.130       .  S
Fe2530     O2541   2.076   1_556  S
Fe2530     O2546   2.114   1_556  S
Fe2531     O2549   2.072       .  S
Fe2531     O2536   2.033       .  S
Fe2531     O2543   2.038       .  S
Fe2531     O2532   2.071       .  S
Fe2531     O2540   1.954       .  S
O2532      C2539   1.271       .  A
O2533      C2547   1.271       .  A
O2534      C2539   1.267       .  A
O2535      C2538   1.268       .  A
O2536      C2548   1.262       .  A
O2537      C2550   1.284       .  A
C2538      O2543   1.259       .  A
C2538      C2644   1.426       .  S
C2539      C2628   1.417       .  S
O2542      C2544   1.267       .  A
C2544      C2681   1.450       .  S
O2545      C2550   1.269       .  A
C2547      C2668   1.442       .  S
C2548      C2620   1.440       .  S
C2550      C2635   1.450       .  S
Fe2551     O2567   2.044       .  S
Fe2551     O2557   2.073       .  S
Fe2551     O2564   2.082       .  S
Fe2551     O2556   2.044       .  S
Fe2551     O2562   1.961       .  S
Fe2552     O2555   2.077       .  S
Fe2552     O2559   2.130       .  S
Fe2552     O2563   2.077       .  S
Fe2552     O2568   2.114       .  S
Fe2552     O2562   1.952       .  S
Fe2553     O2571   2.074       .  S
Fe2553     O2558   2.033       .  S
Fe2553     O2565   2.038       .  S
Fe2553     O2554   2.072       .  S
Fe2553     O2562   1.953       .  S
O2554      C2561   1.271       .  A
O2555      C2569   1.271       .  A
O2556      C2561   1.267       .  A
O2557      C2560   1.268       .  A
O2558      C2570   1.262       .  A
O2559      C2572   1.284       .  A
C2560      O2565   1.259       .  A
C2560      C2638   1.426   1_565  S
O2563      C2566   1.266       .  A
O2564      C2566   1.267       .  A
C2566      C2617   1.450       .  S
O2567      C2572   1.269       .  A
O2568      C2570   1.279       .  A
C2569      O2571   1.269       .  A
C2569      C2622   1.443       .  S
C2570      C2619   1.440       .  S
C2572      C2640   1.450       .  S
Fe2573     O2589   2.044       .  S
Fe2573     O2579   2.073       .  S
Fe2573     O2586   2.082       .  S
Fe2573     O2578   2.044       .  S
Fe2573     O2584   1.961       .  S
Fe2574     O2577   2.077       .  S
Fe2574     O2581   2.130       .  S
Fe2574     O2585   2.076       .  S
Fe2574     O2590   2.113       .  S
Fe2574     O2584   1.951       .  S
Fe2575     O2593   2.072       .  S
Fe2575     O2580   2.034       .  S
Fe2575     O2587   2.038       .  S
Fe2575     O2576   2.072       .  S
Fe2575     O2584   1.953       .  S
O2576      C2583   1.271       .  A
O2577      C2591   1.271       .  A
O2578      C2583   1.267       .  A
O2579      C2582   1.268       .  A
O2580      C2592   1.262       .  A
O2581      C2594   1.284       .  A
C2582      O2587   1.259       .  A
C2582      C2624   1.426       .  S
C2583      C2688   1.417       .  S
O2585      C2588   1.266       .  A
O2586      C2588   1.267       .  A
C2588      C2630   1.450       .  S
O2589      C2594   1.269       .  A
O2590      C2592   1.279       .  A
C2591      O2593   1.268       .  A
C2591      C2634   1.442       .  S
C2592      C2656   1.440       .  S
C2594      C2674   1.449       .  S
Fe2595     O2601   2.074       .  S
Fe2595     O2608   2.083       .  S
Fe2595     O2600   2.044       .  S
Fe2595     O2606   1.961       .  S
Fe2596     O2599   2.077       .  S
Fe2596     O2603   2.129       .  S
Fe2596     O2607   2.077       .  S
Fe2596     O2612   2.113       .  S
Fe2597     O2602   2.034       .  S
Fe2597     O2609   2.038       .  S
Fe2597     O2598   2.072       .  S
Fe2597     O2606   1.953       .  S
O2598      C2605   1.271       .  A
O2599      C2613   1.271       .  A
O2600      C2605   1.267       .  A
O2601      C2604   1.268       .  A
O2602      C2614   1.262       .  A
O2603      C2616   1.284       .  A
C2604      O2609   1.259       .  A
C2604      C2650   1.426       .  S
C2605      C2662   1.418       .  S
O2607      C2610   1.267       .  A
O2611      C2616   1.269       .  A
C2613      O2615   1.268       .  A
C2613      C2679   1.443       .  S
C2614      C2632   1.440       .  S
C2616      C2618   1.449       .  S
C2619      C2620   1.210       .  T
C2621      C2622   1.211       .  T
C2625      C2626   1.209       .  T
C2627      C2628   1.195       .  T
C2631      C2632   1.209       .  T
C2633      C2634   1.210       .  T
C2635      C2636   1.216       .  T
C2641      C2642   1.195       .  T
C2643      C2644   1.202       .  T
C2645      C2646   1.216       .  T
C2647      C2648   1.210       .  T
C2653      C2654   1.196       .  T
C2655      C2656   1.210       .  T
C2657      C2658   1.210       .  T
C2661      C2662   1.196       .  T
C2663      C2664   1.215       .  T
C2665      C2666   1.210       .  T
C2667      C2668   1.210       .  T
C2669      C2670   1.202       .  T
C2671      C2672   1.216       .  T
C2675      C2676   1.196       .  T
C2677      C2678   1.210       .  T
C2679      C2680   1.211       .  T
C2687      C2688   1.196       .  T
