geometry optimzed in LAMMPS
_audit_creation_date              2020-12-01 
_audit_creation_method            'lammps2cif' 
_symmetry_space_group_name_H-M    'P1' 
_symmetry_Int_Tables_number       1 
_symmetry_cell_setting            triclinic 
loop_ 
_symmetry_equiv_pos_as_xyz 
  x,y,z 
_cell_length_a                    35.63402408 
_cell_length_b                    35.73392266931153 
_cell_length_c                    30.17755493707007 
_cell_angle_alpha                 90.0574151432944 
_cell_angle_beta                  90.00690599190249 
_cell_angle_gamma                 90.2492780196057 
loop_ 
_atom_site_label 
_atom_site_type_symbol 
_atom_site_fract_x 
_atom_site_fract_y 
_atom_site_fract_z 
_atom_site_charge 
O1          O  0.52309810  0.80245922  0.05764017    -0.82600
C2          C  0.47486051  0.75672576  0.22286522     0.96800
O3          O  0.45234971  0.77189820  0.19552982    -0.71700
O4          O  0.47963708  0.83256281  0.16237563    -0.75300
Al5        Al  0.46180197  0.78919975  0.13545202     1.49000
C6          C  0.50849350  0.85207319  0.15669504     0.92000
O7          O  0.57738980  0.78185025  0.16124819    -0.81500
O8          O  0.52173716  0.70252545  0.09607266    -0.75100
Al9        Al  0.54681622  0.79045672  0.11032996     1.90100
O10         O  0.56339041  0.72262283  0.16669557    -0.74200
O11         O  0.46079150  0.70382384  0.14486892    -0.74000
O12         O  0.50168609  0.73660711  0.20983242    -0.79700
O13         O  0.43598431  0.74941584  0.10791559    -0.77900
O14         O  0.50655374  0.76724596  0.13256319    -1.14000
O15         O  0.46424408  0.81046540  0.07692051    -0.73200
C16         C  0.49015385  0.81186336  0.04833185     0.97500
C17         C  0.58535194  0.74945535  0.17420262     0.93900
Al18       Al  0.51131042  0.72058326  0.15271442     1.55600
O19         O  0.53606492  0.83930918  0.13509266    -0.77800
C20         C  0.43546956  0.71591023  0.11987371     0.98100
C21         C  0.54921496  0.71350166  0.07301474     0.93000
O22         O  0.56437335  0.74549904  0.07960895    -0.83100
O23         O  0.78211557  0.53283119  0.47381675    -0.82600
C24         C  0.73845619  0.46767900  0.31366417     0.96800
O25         O  0.75618008  0.45036549  0.34371836    -0.71700
O26         O  0.81600663  0.48081077  0.37452363    -0.75300
Al27       Al  0.77178091  0.46538404  0.40224711     1.49000
C28         C  0.83580611  0.50950139  0.37953627     0.92000
O29         O  0.76711402  0.57734053  0.36273536    -0.81500
O30         O  0.68438957  0.53245635  0.43169029    -0.75100
Al31       Al  0.77311693  0.55193745  0.41747962     1.90100
O32         O  0.70816614  0.56208031  0.35279243    -0.74200
O33         O  0.68434356  0.46590339  0.39669917    -0.74000
O34         O  0.71723614  0.49475514  0.32266377    -0.79700
O35         O  0.73162451  0.44150735  0.43131317    -0.77900
O36         O  0.74953149  0.51011822  0.39914497    -1.14000
O37         O  0.79152593  0.47306886  0.46073639    -0.73200
C38         C  0.79123969  0.50075937  0.48685274     0.97500
C39         C  0.73596676  0.58272576  0.34426827     0.93900
Al40       Al  0.70274720  0.51341680  0.37782164     1.55600
O41         O  0.82245299  0.53822550  0.39789631    -0.77800
C42         C  0.69731617  0.44172159  0.42254447     0.98100
C43         C  0.69652380  0.56114163  0.45144286     0.93000
O44         O  0.72871298  0.57444718  0.44259465    -0.83100
O45         O  0.54014137  0.22365104  0.58775552    -0.82600
C46         C  0.45054663  0.21644083  0.73917404     0.96800
O47         O  0.46278284  0.24700771  0.72357232    -0.71700
O48         O  0.53502514  0.23875914  0.71551312    -0.75300
Al49       Al  0.49735340  0.25477853  0.67582075     1.49000
C50         C  0.56540954  0.22369227  0.70416161     0.92000
O51         O  0.52284611  0.14354884  0.66856226    -0.81500
O52         O  0.44540628  0.18755314  0.58894177    -0.75100
Al53       Al  0.52964487  0.18501865  0.62935256     1.90100
O54         O  0.46220925  0.13880989  0.65678266    -0.74200
O55         O  0.41727140  0.23452263  0.64761753    -0.74000
O56         O  0.44337757  0.18909639  0.71405316    -0.79700
O57         O  0.46116379  0.27655753  0.63845620    -0.77900
O58         O  0.49103025  0.20972046  0.65249117    -1.14000
O59         O  0.53290128  0.27130116  0.63300638    -0.73200
C60         C  0.54378927  0.25807710  0.59639370     0.97500
C61         C  0.49258895  0.12499756  0.67059168     0.93900
Al62       Al  0.44549842  0.18908332  0.65188036     1.55600
O63         O  0.56705869  0.20423601  0.66926045    -0.77800
C64         C  0.42757598  0.26639057  0.63447331     0.98100
C65         C  0.47058869  0.17203644  0.56588552     0.93000
O66         O  0.50089574  0.16125723  0.58351711    -0.83100
O67         O  0.74081741  0.40755239  0.95734566    -0.82600
C68         C  0.75705332  0.50065784  0.81150134     0.96800
O69         O  0.72538242  0.48729312  0.82278411    -0.71700
O70         O  0.73142785  0.41535400  0.83087913    -0.75300
Al71       Al  0.71319174  0.45278669  0.86939748     1.49000
C72         C  0.74684216  0.38535569  0.84234451     0.92000
O73         O  0.82599277  0.43086929  0.88464422    -0.81500
O74         O  0.77151936  0.50230274  0.96511049    -0.75100
Al75       Al  0.78159345  0.42061491  0.92001587     1.90100
O76         O  0.82702483  0.48980019  0.90439199    -0.74200
O77         O  0.73106506  0.53197981  0.90068071    -0.74000
O78         O  0.78194744  0.50810545  0.84012469    -0.79700
O79         O  0.68773257  0.48914173  0.90408880    -0.77900
O80         O  0.75675147  0.45900862  0.89694716    -1.14000
O81         O  0.69401240  0.41728557  0.91121183    -0.73200
C82         C  0.70633385  0.40525713  0.94786757     0.97500
C83         C  0.84359103  0.46165086  0.88882622     0.93900
Al84       Al  0.77626746  0.50457390  0.90212909     1.55600
O85         O  0.76604867  0.38392366  0.87737916    -0.77800
C86         C  0.69795774  0.52249332  0.90939664     0.98100
C87         C  0.78644149  0.47667766  0.98816446     0.93000
O88         O  0.80086673  0.44835660  0.96958206    -0.83100
O89         O  0.44904988  0.16263461  0.08456637    -0.82600
C90         C  0.49721487  0.21177757  0.24124687     0.96800
O91         O  0.50604650  0.18647504  0.21387716    -0.71700
O92         O  0.48897172  0.13942926  0.15166688    -0.75300
Al93       Al  0.50403544  0.19023251  0.15157034     1.49000
C94         C  0.46041499  0.12365873  0.16790935     0.92000
O95         O  0.38254973  0.20076754  0.17123830    -0.81500
O96         O  0.41662907  0.27075455  0.13731508    -0.75100
Al97       Al  0.42015151  0.18379692  0.13123392     1.90100
O98         O  0.41288849  0.23609587  0.21841520    -0.74200
O99         O  0.48851164  0.27800393  0.14489769    -0.74000
O100        O  0.48536687  0.24330851  0.22810499    -0.79700
O101        O  0.53178405  0.23579747  0.15154761    -0.77900
O102        O  0.45822663  0.20941745  0.15461153    -1.14000
O103        O  0.50280234  0.19292860  0.08813396    -0.73200
C104        C  0.47707273  0.17731226  0.06552348     0.97500
C105        C  0.38287751  0.22098211  0.20543007     0.93900
Al106      Al  0.45149677  0.25350860  0.18023733     1.55600
O107        O  0.42923906  0.14079619  0.16905827    -0.77800
C108        C  0.52209298  0.26816652  0.14029940     0.98100
C109        C  0.40508035  0.25794702  0.10067100     0.93000
O110        O  0.40815923  0.22351748  0.09139426    -0.83100
O111        O  0.15199574  0.44997025  0.46507244    -0.82600
C112        C  0.20381120  0.50854260  0.31166414     0.96800
O113        O  0.17664122  0.51388734  0.33786419    -0.71700
O114        O  0.12786177  0.49449289  0.39820005    -0.75300
Al115      Al  0.17895289  0.50861029  0.39991534     1.49000
C116        C  0.11142863  0.46652266  0.38176179     0.92000
O117        O  0.18730607  0.38959928  0.36924293    -0.81500
O118        O  0.25924193  0.41991588  0.40987683    -0.75100
Al119      Al  0.17153666  0.42381278  0.41438904     1.90100
O120        O  0.22582226  0.42236383  0.32790222    -0.74200
O121        O  0.26633546  0.49163498  0.40993004    -0.74000
O122        O  0.23444643  0.49472709  0.32530362    -0.79700
O123        O  0.22493336  0.53568944  0.40266944    -0.77900
O124        O  0.19786763  0.46291384  0.39458660    -1.14000
O125        O  0.18053014  0.50482681  0.46247408    -0.73200
C126        C  0.16536646  0.47861992  0.48444075     0.97500
C127        C  0.20809911  0.39252643  0.33552284     0.93900
Al128      Al  0.24277952  0.45756688  0.37015225     1.55600
O129        O  0.12837237  0.43559441  0.37860298    -0.77800
C130        C  0.25692264  0.52520237  0.41476832     0.98100
C131        C  0.24523904  0.40575249  0.44441619     0.93000
O132        O  0.21058406  0.40773498  0.45235276    -0.83100
O133        O  0.21801161  0.55702944  0.95732758    -0.82600
C134        C  0.21031758  0.46262884  0.81092109     0.96800
O135        O  0.24119158  0.47675480  0.82393418    -0.71700
O136        O  0.23379589  0.54903871  0.83177981    -0.75300
Al137      Al  0.25055744  0.51152898  0.87145050     1.49000
C138        C  0.21701830  0.57860208  0.84244926     0.92000
O139        O  0.13701519  0.53151154  0.87919504    -0.81500
O140        O  0.18860920  0.46135472  0.96330588    -0.75100
Al141      Al  0.17928411  0.54264717  0.91737107     1.90100
O142        O  0.13593019  0.47248827  0.89848669    -0.74200
O143        O  0.23278882  0.43184020  0.90210982    -0.74000
O144        O  0.18450622  0.45464016  0.83810688    -0.79700
O145        O  0.27480580  0.47567300  0.90821338    -0.77900
O146        O  0.20589400  0.50461707  0.89605538    -1.14000
O147        O  0.26688796  0.54730841  0.91419832    -0.73200
C148        C  0.25273901  0.56018450  0.94948125     0.97500
C149        C  0.11983380  0.50039546  0.88168111     0.93900
Al150      Al  0.18704482  0.45862369  0.90016299     1.55600
O151        O  0.19601891  0.57932043  0.87597543    -0.77800
C152        C  0.26511947  0.44212668  0.91329273     0.98100
C153        C  0.17207658  0.48686259  0.98496949     0.93000
O154        O  0.15805435  0.51473338  0.96523430    -0.83100
O155        O  0.39789641  0.74925877  0.58568962    -0.82600
C156        C  0.49340421  0.77126758  0.72797940     0.96800
O157        O  0.48235493  0.73865495  0.71728462    -0.71700
O158        O  0.40987573  0.74521008  0.71332312    -0.75300
Al159      Al  0.44547431  0.72561664  0.67330506     1.49000
C160        C  0.37890004  0.75898371  0.70209907     0.92000
O161        O  0.42082042  0.83597590  0.65453588    -0.81500
O162        O  0.49272267  0.78192438  0.57547744    -0.75100
Al163      Al  0.41099059  0.79115313  0.62094405     1.90100
O164        O  0.47967336  0.83858263  0.63348323    -0.84600
O165        O  0.52401078  0.74274831  0.63965508    -0.74000
O166        O  0.49988155  0.79569814  0.69873664    -0.79700
O167        O  0.48014351  0.70020105  0.63633321    -0.77900
O168        O  0.45041752  0.76810332  0.64394639    -1.14000
O169        O  0.40759137  0.70526452  0.63523931    -0.73200
C170        C  0.39463703  0.71570501  0.59824730     0.97500
C171        C  0.45098467  0.85422718  0.64921000     0.93900
Al172      Al  0.49574970  0.78816010  0.63734491     1.55600
O173        O  0.37571120  0.77613422  0.66572401    -0.77800
C174        C  0.51371050  0.70989658  0.63047372     0.98100
C175        C  0.46687384  0.79576402  0.55191222     0.93000
O176        O  0.43758787  0.80939141  0.56947544    -0.83100
C177        C  0.24642630  0.67871590  0.82616310    -0.11600
C178        C  0.26185119  0.67746652  0.78346679     0.05500
C179        C  0.25721100  0.64496940  0.75773714    -0.10400
C180        C  0.23992427  0.61320019  0.77564497    -0.12000
C181        C  0.22614410  0.61378979  0.81919419    -0.01800
C182        C  0.22819049  0.64729927  0.84363181    -0.10900
C183        C  0.28724752  0.70744597  0.76776987     0.05500
H184        H  0.26935528  0.64329608  0.72487905     0.07500
H185        H  0.23908017  0.58763070  0.75636702     0.10900
H186        H  0.21841986  0.64830738  0.87761364     0.11200
H187        H  0.24996323  0.70340240  0.84660976     0.07500
C188        C  0.28212835  0.72343279  0.72579919    -0.11600
C189        C  0.31071541  0.74478926  0.70650017    -0.10900
C190        C  0.34524083  0.74953393  0.72838076    -0.01800
C191        C  0.34903465  0.73630241  0.77199753    -0.12000
C192        C  0.32007651  0.71567778  0.79168333    -0.10400
H193        H  0.25700041  0.71738971  0.70688535     0.07500
H194        H  0.30713287  0.75430243  0.67268564     0.11200
H195        H  0.37540635  0.73939110  0.78950292     0.10900
H196        H  0.32466527  0.70339879  0.82405112     0.07500
C197        C  0.29545053  0.61741506  0.45469401    -0.11600
C198        C  0.32352479  0.60608806  0.48442014     0.05500
C199        C  0.33197161  0.56771431  0.48775434    -0.10400
C200        C  0.31154837  0.54120116  0.46347569    -0.12000
C201        C  0.28234744  0.55267108  0.43549540    -0.01800
C202        C  0.27518256  0.59101598  0.43048731    -0.10900
C203        C  0.34238272  0.63412026  0.51330106     0.05500
H204        H  0.35397315  0.55809343  0.50966257     0.07500
H205        H  0.31759197  0.51176642  0.46789246     0.10900
H206        H  0.25293971  0.60062142  0.40887121     0.11200
H207        H  0.28786893  0.64657362  0.45151793     0.07500
C208        C  0.35007417  0.67045846  0.49772799    -0.11600
C209        C  0.36642823  0.69718748  0.52552874    -0.10900
C210        C  0.37583906  0.68804776  0.56936337    -0.01800
C211        C  0.36820339  0.65179604  0.58498862    -0.12000
C212        C  0.35149910  0.62519781  0.55735561    -0.10400
H213        H  0.34388102  0.67819481  0.46384176     0.07500
H214        H  0.37223641  0.72483076  0.51246207     0.11200
H215        H  0.37498081  0.64397288  0.61871076     0.10900
H216        H  0.34516207  0.59782581  0.57081510     0.07500
C217        C  0.19465811  0.50145086  0.60126343    -0.11600
C218        C  0.17706012  0.47250241  0.62508805     0.05500
C219        C  0.15184524  0.44863758  0.60302455    -0.10400
C220        C  0.14610247  0.45220038  0.55750507    -0.12000
C221        C  0.16536270  0.47980672  0.53324673    -0.01800
C222        C  0.18883390  0.50509539  0.55575622    -0.10900
C223        C  0.18611954  0.46641773  0.67238157     0.05500
H224        H  0.13792464  0.42606059  0.62052271     0.07500
H225        H  0.12785896  0.43228034  0.54100605     0.10900
H226        H  0.20416164  0.52655251  0.53789898     0.11200
H227        H  0.21359277  0.52077270  0.61766734     0.07500
C228        C  0.22330206  0.46993935  0.68738451    -0.11600
C229        C  0.23172303  0.46623047  0.73229904    -0.10900
C230        C  0.20312274  0.45870381  0.76305290    -0.01800
C231        C  0.16621797  0.45335574  0.74776181    -0.12000
C232        C  0.15777909  0.45726307  0.70286466    -0.10400
H233        H  0.24585378  0.47609374  0.66442003     0.07500
H234        H  0.26038512  0.47059358  0.74311657     0.11200
H235        H  0.14345479  0.44807463  0.77075569     0.10900
H236        H  0.12886660  0.45455352  0.69227509     0.07500
C237        C  0.20078937  0.47097178  0.10337182    -0.11600
C238        C  0.18022896  0.49913715  0.12502271     0.05500
C239        C  0.15347418  0.51942003  0.10106780    -0.10400
C240        C  0.14878629  0.51312345  0.05590944    -0.12000
C241        C  0.17093719  0.48659120  0.03367739    -0.01800
C242        C  0.19619575  0.46475296  0.05799373    -0.10900
C243        C  0.18692796  0.50753346  0.17233561     0.05500
H244        H  0.13727285  0.54130193  0.11678045     0.07500
H245        H  0.12906436  0.53041199  0.03797035     0.10900
H246        H  0.21375292  0.44429441  0.04161428     0.11200
H247        H  0.22094565  0.45424430  0.12136337     0.07500
C248        C  0.15672323  0.51499749  0.20087953    -0.11600
C249        C  0.16270675  0.51887998  0.24629987    -0.10900
C250        C  0.19894059  0.51503170  0.26391869    -0.01800
C251        C  0.22947808  0.51055741  0.23501476    -0.12000
C252        C  0.22351560  0.50693075  0.18958747    -0.10400
H253        H  0.12821764  0.51570063  0.18851553     0.07500
H254        H  0.13862516  0.52219273  0.26783710     0.11200
H255        H  0.25777042  0.50782485  0.24769147     0.10900
H256        H  0.24742959  0.50245516  0.16810831     0.07500
C257        C  0.30078908  0.35110778  0.96022180    -0.11600
C258        C  0.33439702  0.36221769  0.98066144     0.05500
C259        C  0.34666273  0.39951974  0.97585228    -0.10400
C260        C  0.32496876  0.42543850  0.95248125    -0.12000
C261        C  0.29064210  0.41448591  0.93353900    -0.01800
C262        C  0.27920914  0.37688909  0.93694142    -0.10900
C263        C  0.35477952  0.33561488  0.00963688     0.05500
H264        H  0.37270543  0.40879742  0.99082510     0.07500
H265        H  0.33448871  0.45421470  0.95039362     0.10900
H266        H  0.25287822  0.36752772  0.92275532     0.11200
H267        H  0.29025811  0.32280145  0.96381836     0.07500
C268        C  0.36919731  0.34781607  0.05045660    -0.11600
C269        C  0.38558108  0.32250008  0.07964626    -0.10900
C270        C  0.38796233  0.28428249  0.06883494    -0.01800
C271        C  0.37423213  0.27205252  0.02765349    -0.12000
C272        C  0.35775710  0.29749667  0.99834258    -0.10400
H273        H  0.36678152  0.37679692  0.06051771     0.07500
H274        H  0.39602529  0.33294136  0.11104090     0.11200
H275        H  0.37600598  0.24286922  0.01821940     0.10900
H276        H  0.34721682  0.28732786  0.96687852     0.07500
C277        C  0.31452997  0.26429235  0.28536028    -0.11600
C278        C  0.28421194  0.27159699  0.25692600     0.05500
C279        C  0.28441799  0.25684462  0.21391361    -0.10400
C280        C  0.31534286  0.23656192  0.19885452    -0.12000
C281        C  0.34703375  0.23181497  0.22608860    -0.01800
C282        C  0.34596657  0.24496877  0.26988809    -0.10900
C283        C  0.25563174  0.29912338  0.27031479     0.05500
H284        H  0.26146713  0.26253871  0.19142087     0.07500
H285        H  0.31574391  0.22739937  0.16461048     0.10900
H286        H  0.37020015  0.24212154  0.29125574     0.11200
H287        H  0.31503823  0.27593505  0.31853113     0.07500
C288        C  0.23481472  0.29386820  0.30923033    -0.11600
C289        C  0.21480375  0.32361995  0.32767597    -0.10900
C290        C  0.21634937  0.35930161  0.30814596    -0.01800
C291        C  0.23436630  0.36353195  0.26700138    -0.12000
C292        C  0.25365165  0.33353375  0.24807031    -0.10400
H293        H  0.23605477  0.26748860  0.32677596     0.07500
H294        H  0.20138901  0.31959300  0.35954228     0.11200
H295        H  0.23606580  0.39072528  0.25128392     0.10900
H296        H  0.26972999  0.33814951  0.21806885     0.07500
C297        C  0.94263857  0.44591777  0.84468404    -0.11600
C298        C  0.96088913  0.47888596  0.85928776     0.05500
C299        C  0.93988762  0.50568467  0.88221931    -0.10400
C300        C  0.90208916  0.49964630  0.89109697    -0.12000
C301        C  0.88385397  0.46647608  0.87759158    -0.01800
C302        C  0.90440537  0.43972838  0.85384111    -0.10900
C303        C  0.00229016  0.48398545  0.85564344     0.05500
H304        H  0.95297906  0.53084825  0.89507751     0.07500
H305        H  0.88733204  0.52097151  0.90964074     0.10900
H306        H  0.89105974  0.41414320  0.84261277     0.11200
H307        H  0.95801599  0.42474182  0.82666020     0.07500
C308        C  0.01848838  0.51988176  0.85047161    -0.11600
C309        C  0.05715177  0.52551742  0.85660584    -0.10900
C310        C  0.08024722  0.49529672  0.86771826    -0.01800
C311        C  0.06440625  0.45909482  0.86918746    -0.12000
C312        C  0.02601296  0.45354521  0.86343784    -0.10400
H313        H  0.00102730  0.54387752  0.84349260     0.07500
H314        H  0.06858807  0.55359241  0.85465890     0.11200
H315        H  0.08143309  0.43494759  0.87699153     0.10900
H316        H  0.01470964  0.42564284  0.86800735     0.07500
C317        C  0.61585825  0.37380034  0.00269013    -0.11600
C318        C  0.62902599  0.35701465  0.04178590     0.05500
C319        C  0.66785204  0.35724257  0.05029600    -0.10400
C320        C  0.69295068  0.37293424  0.01987887    -0.12000
C321        C  0.67981884  0.38873891  0.98022645    -0.01800
C322        C  0.64095350  0.38945866  0.97225503    -0.10900
C323        C  0.60267530  0.33681520  0.07169023     0.05500
H324        H  0.67887976  0.34505664  0.08040397     0.07500
H325        H  0.72268868  0.37240872  0.02729965     0.10900
H326        H  0.62989025  0.40183061  0.94225865     0.11200
H327        H  0.58620786  0.37372744  0.99482665     0.07500
C328        C  0.56626531  0.35036099  0.07982927    -0.11600
C329        C  0.54030868  0.32888508  0.10382859    -0.10900
C330        C  0.55031863  0.29350165  0.12017400    -0.01800
C331        C  0.58723064  0.28086342  0.11379342    -0.12000
C332        C  0.61301660  0.30218157  0.08981509    -0.10400
H333        H  0.55762023  0.37722066  0.06687890     0.07500
H334        H  0.51212024  0.33943539  0.10835118     0.11200
H335        H  0.59590093  0.25371935  0.12588811     0.10900
H336        H  0.64058081  0.29062667  0.08374136     0.07500
C337        C  0.45150297  0.94613690  0.71139108    -0.11600
C338        C  0.47299033  0.96836219  0.68226370     0.05500
C339        C  0.48387425  0.95340027  0.64128040    -0.10400
C340        C  0.47469781  0.91679486  0.63010216    -0.12000
C341        C  0.45416457  0.89424537  0.65941684    -0.01800
C342        C  0.44216474  0.90913476  0.70001334    -0.10900
C343        C  0.48186584  0.00805709  0.69190874     0.05500
H344        H  0.49931267  0.97017782  0.61753734     0.07500
H345        H  0.48423259  0.90576403  0.59861119     0.10900
H346        H  0.42696492  0.89181612  0.72342231     0.11200
H347        H  0.44254708  0.95718068  0.74307522     0.07500
C348        C  0.45335318  0.03220747  0.70595444    -0.11600
C349        C  0.45829313  0.07086190  0.70279894    -0.10900
C350        C  0.49190381  0.08592096  0.68595566    -0.01800
C351        C  0.52199006  0.06198695  0.67698139    -0.12000
C352        C  0.51695792  0.02324203  0.67983900    -0.10400
H353        H  0.42612576  0.02131523  0.71549807     0.07500
H354        H  0.43484984  0.08894123  0.71052962     0.11200
H355        H  0.54817949  0.07297732  0.66411701     0.10900
H356        H  0.53964082  0.00508902  0.66961893     0.07500
C357        C  0.28490756  0.33741947  0.52718537    -0.11600
C358        C  0.32038330  0.35341990  0.53595982     0.05500
C359        C  0.32990824  0.38743294  0.51527562    -0.10400
C360        C  0.30541549  0.40407421  0.48525860    -0.12000
C361        C  0.27039238  0.38777649  0.47631918    -0.01800
C362        C  0.25992208  0.35475970  0.49806571    -0.10900
C363        C  0.34809722  0.33374820  0.56445121     0.05500
H364        H  0.35637870  0.40124707  0.52205435     0.07500
H365        H  0.31364572  0.43001879  0.46934842     0.10900
H366        H  0.23295847  0.34180577  0.49144262     0.11200
H367        H  0.27675671  0.31094299  0.54172871     0.07500
C368        C  0.33629332  0.31093093  0.59986866    -0.11600
C369        C  0.36220682  0.28949711  0.62345266    -0.10900
C370        C  0.40048778  0.29131759  0.61289844    -0.01800
C371        C  0.41263003  0.31544146  0.57921704    -0.12000
C372        C  0.38672023  0.33606974  0.55488193    -0.10400
H373        H  0.30697428  0.30915627  0.60903033     0.07500
H374        H  0.35233959  0.27128321  0.64968247     0.11200
H375        H  0.44204555  0.31697468  0.57023407     0.10900
H376        H  0.39699719  0.35260641  0.52740425     0.07500
C377        C  0.66704300  0.24634550  0.72696892    -0.11600
C378        C  0.66401939  0.26704196  0.76629181     0.05500
C379        C  0.62945169  0.26829112  0.78848155    -0.10400
C380        C  0.59766407  0.25146232  0.76998447    -0.12000
C381        C  0.60001094  0.23268332  0.72914307    -0.01800
C382        C  0.63533902  0.22883334  0.70882200    -0.10900
C383        C  0.69471087  0.29191925  0.78115601     0.05500
H384        H  0.62650591  0.28451630  0.81864119     0.07500
H385        H  0.57086356  0.25503001  0.78633532     0.10900
H386        H  0.63798105  0.21475409  0.67717050     0.11200
H387        H  0.69347152  0.24525641  0.70933556     0.07500
C388        C  0.70921605  0.28874429  0.82417606    -0.11600
C389        C  0.73086362  0.31770733  0.84225858    -0.10900
C390        C  0.73722549  0.35073944  0.81808885    -0.01800
C391        C  0.72522734  0.35254335  0.77378207    -0.12000
C392        C  0.70445989  0.32311017  0.75530878    -0.10400
H393        H  0.70170253  0.26503106  0.84467826     0.07500
H394        H  0.73922787  0.31583531  0.87672233     0.11200
H395        H  0.72944504  0.37782111  0.75463519     0.10900
H396        H  0.69314785  0.32621377  0.72216952     0.07500
C397        C  0.49533357  0.15079778  0.44765550    -0.11600
C398        C  0.47347734  0.17724052  0.42515935     0.05500
C399        C  0.44603680  0.19725980  0.44869203    -0.10400
C400        C  0.44258757  0.19304475  0.49451439    -0.12000
C401        C  0.46671672  0.16893161  0.51745737    -0.01800
C402        C  0.49203129  0.14672914  0.49341310    -0.10900
C403        C  0.48144594  0.18602903  0.37820817     0.05500
H404        H  0.42829794  0.21727880  0.43189454     0.07500
H405        H  0.42291406  0.21056554  0.51226684     0.10900
H406        H  0.51090887  0.12782279  0.51030323     0.11200
H407        H  0.51668918  0.13500460  0.43037483     0.07500
C408        C  0.48290626  0.22345680  0.36407834    -0.11600
C409        C  0.49045590  0.23205118  0.31990158    -0.10900
C410        C  0.49691806  0.20339760  0.28902032    -0.01800
C411        C  0.49663831  0.16599189  0.30342141    -0.12000
C412        C  0.48892959  0.15739554  0.34761371    -0.10400
H413        H  0.47811781  0.24611882  0.38721367     0.07500
H414        H  0.49017134  0.26109745  0.30966475     0.11200
H415        H  0.50064825  0.14325539  0.28015514     0.10900
H416        H  0.48782799  0.12830871  0.35761222     0.07500
C417        C  0.46596345  0.23343473  0.86079531    -0.11600
C418        C  0.45960994  0.19753403  0.87811864     0.05500
C419        C  0.44583374  0.16920680  0.85010000    -0.10400
C420        C  0.44004059  0.17621571  0.80524806    -0.12000
C421        C  0.44817609  0.21161966  0.78748186    -0.01800
C422        C  0.46029913  0.24043328  0.81585944    -0.10900
C423        C  0.46678079  0.18967197  0.92539726     0.05500
H424        H  0.44084909  0.14119987  0.86249578     0.07500
H425        H  0.43105404  0.15333766  0.78412388     0.10900
H426        H  0.46696633  0.26796526  0.80304918     0.11200
H427        H  0.47572014  0.25600079  0.88189568     0.07500
C428        C  0.49825196  0.20485057  0.94731920    -0.11600
C429        C  0.50329217  0.19909671  0.99278917    -0.10900
C430        C  0.47702952  0.17789952  0.01673922    -0.01800
C431        C  0.44663781  0.16135840  0.99416831    -0.12000
C432        C  0.44144569  0.16739407  0.94918711    -0.10400
H433        H  0.51857918  0.22164676  0.92945806     0.07500
H434        H  0.52677803  0.21236610  0.00941596     0.11200
H435        H  0.42565779  0.14505898  0.01163569     0.10900
H436        H  0.41671988  0.15572672  0.93341037     0.07500
C437        C  0.02097212  0.51506823  0.35406942    -0.11600
C438        C  0.99454246  0.48602378  0.35735498     0.05500
C439        C  0.00752653  0.44909873  0.36341376    -0.10400
C440        C  0.04596978  0.44186253  0.36865397    -0.12000
C441        C  0.07189592  0.47148244  0.36825728    -0.01800
C442        C  0.05904918  0.50791542  0.35958904    -0.10900
C443        C  0.95371228  0.49475320  0.35759499     0.05500
H444        H  0.98789385  0.42604033  0.36638072     0.07500
H445        H  0.05512737  0.41358589  0.37544960     0.10900
H446        H  0.07847901  0.53130025  0.35840394     0.11200
H447        H  0.01217538  0.54360506  0.34822163     0.07500
C448        C  0.94036248  0.52710225  0.37915437    -0.11600
C449        C  0.90184632  0.53350537  0.38352199    -0.10900
C450        C  0.87583966  0.50755151  0.36677321    -0.01800
C451        C  0.88912589  0.47635745  0.34304024    -0.12000
C452        C  0.92759249  0.47004423  0.33850272    -0.10400
H453        H  0.95961678  0.54658361  0.39473162     0.07500
H454        H  0.89250634  0.55759744  0.40225883     0.11200
H455        H  0.86975341  0.45591394  0.32945324     0.10900
H456        H  0.93685824  0.44534816  0.32088227     0.07500
C457        C  0.57472239  0.34732108  0.54024777    -0.11600
C458        C  0.60109736  0.33406083  0.50958200     0.05500
C459        C  0.60625048  0.29524803  0.50504410    -0.10400
C460        C  0.58639659  0.27019357  0.53193102    -0.12000
C461        C  0.56159074  0.28364671  0.56427558    -0.01800
C462        C  0.55531959  0.32236927  0.56750755    -0.10900
C463        C  0.62517344  0.36076159  0.48501300     0.05500
H464        H  0.62619795  0.28438417  0.48126999     0.07500
H465        H  0.59156843  0.24047310  0.52865444     0.10900
H466        H  0.53596109  0.33345156  0.59183649     0.11200
H467        H  0.57034789  0.37708510  0.54452719     0.07500
C468        C  0.60981892  0.39246431  0.46444531    -0.11600
C469        C  0.63315154  0.41849990  0.44330085    -0.10900
C470        C  0.67226878  0.41354511  0.44299046    -0.01800
C471        C  0.68750388  0.38182012  0.46359735    -0.12000
C472        C  0.66418540  0.35560434  0.48413657    -0.10400
H473        H  0.57979726  0.39706501  0.46477183     0.07500
H474        H  0.62066895  0.44283761  0.42794360     0.11200
H475        H  0.71753649  0.37731103  0.46401519     0.10900
H476        H  0.67675275  0.33173769  0.50040963     0.07500
C477        C  0.81101706  0.52626541  0.60496329    -0.11600
C478        C  0.79568593  0.49529625  0.62696504     0.05500
C479        C  0.78534771  0.46335470  0.60256133    -0.10400
C480        C  0.78746583  0.46358224  0.55634807    -0.12000
C481        C  0.79930030  0.49601177  0.53420129    -0.01800
C482        C  0.81254846  0.52673448  0.55884269    -0.10900
C483        C  0.78595250  0.49827991  0.67422368     0.05500
H484        H  0.77375104  0.43906299  0.61916566     0.07500
H485        H  0.77692955  0.43968828  0.53796222     0.10900
H486        H  0.82191157  0.55200610  0.54232706     0.11200
H487        H  0.81909673  0.55114970  0.62321712     0.07500
C488        C  0.81251867  0.51021018  0.70553395    -0.11600
C489        C  0.80261230  0.51309374  0.75019859    -0.10900
C490        C  0.76586445  0.50449643  0.76400775    -0.01800
C491        C  0.73900980  0.49410336  0.73216919    -0.12000
C492        C  0.74902210  0.49088116  0.68774548    -0.10400
H493        H  0.84108004  0.51637869  0.69555554     0.07500
H494        H  0.82402641  0.52075005  0.77405157     0.11200
H495        H  0.71052285  0.48717825  0.74173653     0.10900
H496        H  0.72789299  0.48254322  0.66383723     0.07500
C497        C  0.78970521  0.45231064  0.20672221    -0.11600
C498        C  0.76214711  0.46291945  0.17582686     0.05500
C499        C  0.72521488  0.46858342  0.19059302    -0.10400
C500        C  0.71669360  0.46685500  0.23560986    -0.12000
C501        C  0.74477965  0.45885792  0.26670177    -0.01800
C502        C  0.78101837  0.45011568  0.25184760    -0.10900
C503        C  0.77182255  0.46923634  0.12859810     0.05500
H504        H  0.70310633  0.47555948  0.16745677     0.07500
H505        H  0.68852294  0.47362835  0.24637818     0.10900
H506        H  0.80328406  0.44450544  0.27534381     0.11200
H507        H  0.81842334  0.44776334  0.19639460     0.07500
C508        C  0.75539198  0.49882893  0.10477828    -0.11600
C509        C  0.76201686  0.50297771  0.05939187    -0.10900
C510        C  0.78531012  0.47767447  0.03704694    -0.01800
C511        C  0.80348787  0.44951026  0.06141659    -0.12000
C512        C  0.79677926  0.44530017  0.10665773    -0.10400
H513        H  0.73679198  0.51837094  0.12107741     0.07500
H514        H  0.74758527  0.52488924  0.04149722     0.11200
H515        H  0.82164113  0.42953110  0.04513509     0.10900
H516        H  0.80984939  0.42225831  0.12397624     0.07500
C517        C  0.61630940  0.57943759  0.53046505    -0.11600
C518        C  0.62226008  0.61720548  0.54159668     0.05500
C519        C  0.65423342  0.63562007  0.52480465    -0.10400
C520        C  0.67906679  0.61705316  0.49664393    -0.12000
C521        C  0.67220168  0.57983730  0.48417133    -0.01800
C522        C  0.64091119  0.56101636  0.50187035    -0.10900
C523        C  0.59428788  0.63807862  0.56840732     0.05500
H524        H  0.65940790  0.66486173  0.53204988     0.07500
H525        H  0.70290078  0.63225377  0.48338218     0.10900
H526        H  0.63522529  0.53210375  0.49325330     0.11200
H527        H  0.59241811  0.56420015  0.54348092     0.07500
C528        C  0.55557992  0.63168538  0.56257392    -0.11600
C529        C  0.52924234  0.65397008  0.58439346    -0.10900
C530        C  0.54110642  0.68337106  0.61195283    -0.01800
C531        C  0.57963794  0.68895356  0.61906810    -0.12000
C532        C  0.60594045  0.66632349  0.59787511    -0.10400
H533        H  0.54556963  0.61054491  0.53968051     0.07500
H534        H  0.49965271  0.64932378  0.57810184     0.11200
H535        H  0.58946121  0.71123452  0.64055053     0.10900
H536        H  0.63546220  0.67143351  0.60395522     0.07500
C537        C  0.44534500  0.01953249  0.18531876    -0.11600
C538        C  0.48264044  0.00789903  0.19272510     0.05500
C539        C  0.51046421  0.03515617  0.19900281    -0.10400
C540        C  0.50195143  0.07297297  0.19454030    -0.12000
C541        C  0.46546026  0.08462013  0.18321308    -0.01800
C542        C  0.43679770  0.05770200  0.18050525    -0.10900
C543        C  0.49321332  0.96776013  0.18964269     0.05500
H544        H  0.53919172  0.02713312  0.20570031     0.07500
H545        H  0.52457716  0.09315745  0.19769097     0.10900
H546        H  0.40852124  0.06586336  0.17175806     0.11200
H547        H  0.42327416  0.99903233  0.18037795     0.07500
C548        C  0.52438726  0.95671123  0.16405304    -0.11600
C549        C  0.53142416  0.91875771  0.15581367    -0.10900
C550        C  0.50748372  0.89117975  0.17318411    -0.01800
C551        C  0.47808504  0.90225940  0.20153458    -0.12000
C552        C  0.47089686  0.94007606  0.20941769    -0.10400
H553        H  0.54205216  0.97749193  0.14822612     0.07500
H554        H  0.55409432  0.91118208  0.13369902     0.11200
H555        H  0.45929729  0.88168047  0.21590101     0.10900
H556        H  0.44716664  0.94771764  0.22989316     0.07500
C557        C  0.34545873  0.68179451  0.06724270    -0.11600
C558        C  0.35173446  0.64310004  0.06471805     0.05500
C559        C  0.38445407  0.62818712  0.08360095    -0.10400
C560        C  0.41104538  0.65175090  0.10331128    -0.12000
C561        C  0.40559692  0.69065454  0.10381530    -0.01800
C562        C  0.37227758  0.70539420  0.08632319    -0.10900
C563        C  0.32600013  0.61912459  0.03862679     0.05500
H564        H  0.38980044  0.59839406  0.08219689     0.07500
H565        H  0.43653771  0.63969379  0.11652190     0.10900
H566        H  0.36733403  0.73528048  0.08649677     0.11200
H567        H  0.32063635  0.69399204  0.05253907     0.07500
C568        C  0.28689197  0.62237842  0.04303823    -0.11600
C569        C  0.26284117  0.60240762  0.01491126    -0.10900
C570        C  0.27758211  0.57936597  0.98148511    -0.01800
C571        C  0.31668981  0.57539362  0.97798755    -0.12000
C572        C  0.34062815  0.59491746  0.00640024    -0.10400
H573        H  0.27500463  0.64077551  0.06783310     0.07500
H574        H  0.23281078  0.60582028  0.01848265     0.11200
H575        H  0.32887349  0.55755003  0.95281869     0.10900
H576        H  0.37066413  0.59222598  0.00201162     0.07500
C577        C  0.66387409  0.61196219  0.96084376    -0.11600
C578        C  0.62501888  0.60603895  0.96359335     0.05500
C579        C  0.60979237  0.57225519  0.94736093    -0.10400
C580        C  0.63322705  0.54485395  0.92917122    -0.12000
C581        C  0.67211695  0.55103923  0.92674865    -0.01800
C582        C  0.68705223  0.58494548  0.94248026    -0.10900
C583        C  0.60147259  0.63418982  0.98638735     0.05500
H584        H  0.57987590  0.56697407  0.94894538     0.07500
H585        H  0.62104323  0.51892629  0.91720897     0.10900
H586        H  0.71698291  0.59033693  0.94167104     0.11200
H587        H  0.67666333  0.63708928  0.97419820     0.07500
C588        C  0.57359727  0.62270413  0.01627619    -0.11600
C589        C  0.55547156  0.64889411  0.04289659    -0.10900
C590        C  0.56508611  0.68709685  0.04051355    -0.01800
C591        C  0.59159925  0.69886203  0.00915904    -0.12000
C592        C  0.60939857  0.67266491  0.98205966    -0.10400
H593        H  0.56716609  0.59330939  0.02082911     0.07500
H594        H  0.53515728  0.63890579  0.06687063     0.11200
H595        H  0.59920730  0.72813566  0.00631534     0.10900
H596        H  0.63025289  0.68240730  0.95861982     0.07500
C597        C  0.65257061  0.72357740  0.26399570    -0.11600
C598        C  0.67849320  0.70202840  0.23980140     0.05500
C599        C  0.67745013  0.70337484  0.19324780    -0.10400
C600        C  0.64877107  0.72256042  0.17154558    -0.12000
C601        C  0.62107272  0.74116435  0.19594228    -0.01800
C602        C  0.62389940  0.74287850  0.24216575    -0.10900
C603        C  0.70142370  0.67326567  0.26271183     0.05500
H604        H  0.69723271  0.68741937  0.17371806     0.07500
H605        H  0.64654235  0.72048618  0.13579663     0.10900
H606        H  0.60221354  0.75642097  0.26144837     0.11200
H607        H  0.65230540  0.72276865  0.29987074     0.07500
C608        C  0.71794438  0.68045562  0.30424570    -0.11600
C609        C  0.73262596  0.65106625  0.32950887    -0.10900
C610        C  0.73050807  0.61416746  0.31380487    -0.01800
C611        C  0.71614774  0.60721638  0.27141615    -0.12000
C612        C  0.70213166  0.63652299  0.24588450    -0.10400
H613        H  0.71787638  0.70844248  0.31799678     0.07500
H614        H  0.74307228  0.65675936  0.36257895     0.11200
H615        H  0.71388336  0.57880213  0.25912306     0.10900
H616        H  0.68913445  0.62983842  0.21439091     0.07500
C617        C  0.50131946  0.83047263  0.83107301    -0.11600
C618        C  0.48425193  0.80701664  0.86257675     0.05500
C619        C  0.47353658  0.77063108  0.85015055    -0.10400
C620        C  0.47888706  0.75818796  0.80691954    -0.12000
C621        C  0.49493246  0.78191540  0.77505176    -0.01800
C622        C  0.50650018  0.81807131  0.78760661    -0.10900
C623        C  0.48055949  0.81866892  0.90937275     0.05500
H624        H  0.46131936  0.75155662  0.87403996     0.07500
H625        H  0.46921592  0.73036968  0.79814690     0.10900
H626        H  0.51847844  0.83716522  0.76355154     0.11200
H627        H  0.51005731  0.85857869  0.83987527     0.07500
C628        C  0.51109657  0.83567400  0.93078472    -0.11600
C629        C  0.51215395  0.83741330  0.97682961    -0.10900
C630        C  0.48269327  0.82227466  0.00213945    -0.01800
C631        C  0.45012080  0.80961191  0.98079474    -0.12000
C632        C  0.44907794  0.80777576  0.93453289    -0.10400
H633        H  0.53568875  0.84438813  0.91233489     0.07500
H634        H  0.53746738  0.84761289  0.99275060     0.11200
H635        H  0.42711367  0.79779815  0.99970637     0.10900
H636        H  0.42481512  0.79534294  0.91858052     0.07500
C637        C  0.43893806  0.78664516  0.33567053    -0.11600
C638        C  0.47045166  0.77882487  0.36231104     0.05500
C639        C  0.50277034  0.76428168  0.34225823    -0.10400
C640        C  0.50326125  0.75629697  0.29736905    -0.12000
C641        C  0.47184550  0.76364802  0.27074775    -0.01800
C642        C  0.43978837  0.77944765  0.29002421    -0.10900
C643        C  0.46994842  0.78457559  0.41097901     0.05500
H644        H  0.52808080  0.75925542  0.36113116     0.07500
H645        H  0.52884960  0.74509243  0.28335025     0.10900
H646        H  0.41541046  0.78581447  0.27000971     0.11200
H647        H  0.41347397  0.79765937  0.35009385     0.07500
C648        C  0.44976793  0.81410191  0.43037742    -0.11600
C649        C  0.44936257  0.81857151  0.47640870    -0.10900
C650        C  0.46984123  0.79413228  0.50351895    -0.01800
C651        C  0.49051731  0.76521366  0.48419229    -0.12000
C652        C  0.49009725  0.76011131  0.43859067    -0.10400
H653        H  0.43437785  0.83374777  0.41011618     0.07500
H654        H  0.43300320  0.84096991  0.49082018     0.11200
H655        H  0.50574649  0.74543152  0.50451954     0.10900
H656        H  0.50493960  0.73629836  0.42519661     0.07500
loop_ 
_geom_bond_atom_site_label_1 
_geom_bond_atom_site_label_2 
_geom_bond_distance 
_geom_bond_site_symmetry_2 
_ccdc_geom_bond_type 
O1           C16   1.254       .  A
O1           Al9   1.852       .  S
C2           O12   1.261       .  A
C2            O3   1.274       .  A
C2          C641   1.470       .  S
O3           Al5   1.945       .  S
O4            C6   1.252       .  A
O4           Al5   1.858       .  S
Al5          O13   1.883       .  S
Al5          O15   1.925       .  S
Al5          O14   1.782       .  S
C6           O19   1.266       .  A
C6          C550   1.483       .  S
O7           C17   1.256       .  A
O7           Al9   1.909       .  S
O8           C21   1.263       .  A
O8          Al18   1.864       .  S
Al9          O22   1.959       .  S
Al9          O19   1.938       .  S
Al9          O14   1.785       .  S
O10          C17   1.255       .  A
O10         Al18   1.904       .  S
O11          C20   1.254       .  A
O11         Al18   1.909       .  S
O12         Al18   1.848       .  S
O13          C20   1.251       .  A
O14         Al18   1.784       .  S
O15          C16   1.265       .  A
C16         C630   1.468       .  S
C17         C601   1.464       .  S
C20         C561   1.474       .  S
C21          O22   1.278       .  A
C21         C590   1.475       .  S
O23          C38   1.256       .  A
O23         Al31   1.861       .  S
C24          O34   1.260       .  A
C24          O25   1.268       .  A
C24         C501   1.469       .  S
O25         Al27   1.927       .  S
O26          C28   1.251       .  A
O26         Al27   1.866       .  S
Al27         O35   1.880       .  S
Al27         O37   1.919       .  S
Al27         O36   1.790       .  S
C28          O41   1.261       .  A
C28         C450   1.480       .  S
O29          C39   1.258       .  A
O29         Al31   1.898       .  S
O30          C43   1.260       .  A
O30         Al40   1.880       .  S
Al31         O44   1.933       .  S
Al31         O41   1.920       .  S
Al31         O36   1.798       .  S
O32          C39   1.259       .  A
O32         Al40   1.906       .  S
O33          C42   1.254       .  A
O33         Al40   1.905       .  S
O34         Al40   1.866       .  S
O35          C42   1.251       .  A
O36         Al40   1.791       .  S
O37          C38   1.264       .  A
C38         C481   1.468       .  S
C39         C610   1.466       .  S
C42         C470   1.478       .  S
C43          O44   1.268       .  A
C43         C521   1.475       .  S
O45          C60   1.263       .  A
O45         Al53   1.903       .  S
C46          O56   1.261       .  A
C46          O47   1.266       .  A
C46         C421   1.471       .  S
O47         Al49   1.916       .  S
O48          C50   1.259       .  A
O48         Al49   1.890       .  S
Al49         O57   1.884       .  S
Al49         O59   1.902       .  S
Al49         O58   1.770       .  S
C50          O63   1.263       .  A
C50         C381   1.479       .  S
O51          C61   1.265       .  A
O51         Al53   1.912       .  S
O52          C65   1.265       .  A
O52         Al62   1.900       .  S
Al53         O66   1.917       .  S
Al53         O63   1.921       .  S
Al53         O58   1.780       .  S
O54          C61   1.263       .  A
O54         Al62   1.901       .  S
O55          C64   1.259       .  A
O55         Al62   1.918       .  S
O56         Al62   1.878       .  S
O57          C64   1.255       .  A
O58         Al62   1.779       .  S
O59          C60   1.263       .  A
C60         C461   1.474       .  S
C61         C350   1.472       .  S
C64         C370   1.469       .  S
C65          O66   1.266       .  A
C65         C401   1.472       .  S
O67          C82   1.264       .  A
O67         Al75   1.896       .  S
C68          O78   1.265       .  A
C68          O69   1.270       .  A
C68         C490   1.474       .  S
O69         Al71   1.920       .  S
O70          C72   1.256       .  A
O70         Al71   1.889       .  S
Al71         O79   1.901       .  S
Al71         O81   1.914       .  S
Al71         O80   1.774       .  S
C72          O85   1.261       .  A
C72         C390   1.476       .  S
O73          C83   1.270       .  A
O73         Al75   1.942       .  S
O74          C87   1.269       .  A
O74         Al84   1.910       .  S
Al75         O88   1.919       .  S
Al75         O85   1.916       .  S
Al75         O80   1.778       .  S
O76          C83   1.259       .  A
O76         Al84   1.888       .  S
O77          C86   1.254       .  A
O77         Al84   1.889       .  S
O78         Al84   1.886       .  S
O79          C86   1.255       .  A
O80         Al84   1.774       .  S
O81          C82   1.266       .  A
C82         C321   1.480       .  S
C83         C301   1.484       .  S
C86         C581   1.473       .  S
C87          O88   1.267       .  A
C87         C510   1.476   1_556  S
O89         C104   1.264       .  A
O89         Al97   1.903       .  S
C90         O100   1.269       .  A
C90          O91   1.265       .  A
C90         C410   1.473       .  S
O91         Al93   1.887       .  S
O92          C94   1.261       .  A
O92         Al93   1.891       .  S
Al93        O101   1.901       .  S
Al93        O103   1.917       .  S
Al93        O102   1.776       .  S
C94         O107   1.271       .  A
C94         C541   1.482       .  S
O95         C105   1.259       .  A
O95         Al97   1.904       .  S
O96         C109   1.264       .  A
O96        Al106   1.900       .  S
Al97        O110   1.911       .  S
Al97        O107   1.943       .  S
Al97        O102   1.779       .  S
O98         C105   1.258       .  A
O98        Al106   1.898       .  S
O99         C108   1.256       .  A
O99        Al106   1.907       .  S
O100       Al106   1.919       .  S
O101        C108   1.256       .  A
O102       Al106   1.772       .  S
O103        C104   1.270       .  A
C104        C430   1.472       .  S
C105        C281   1.474       .  S
C108        C330   1.481       .  S
C109        O110   1.267       .  A
C109        C270   1.479       .  S
O111        C126   1.269       .  A
O111       Al119   1.924       .  S
C112        O122   1.269       .  A
C112        O113   1.265       .  A
C112        C250   1.470       .  S
O113       Al115   1.884       .  S
O114        C116   1.258       .  A
O114       Al115   1.888       .  S
Al115       O123   1.901       .  S
Al115       O125   1.894       .  S
Al115       O124   1.776       .  S
C116        O129   1.265       .  A
C116        C441   1.478       .  S
O117        C127   1.263       .  A
O117       Al119   1.916       .  S
O118        C131   1.261       .  A
O118       Al128   1.898       .  S
Al119       O132   1.894       .  S
Al119       O129   1.928       .  S
Al119       O124   1.783       .  S
O120        C127   1.258       .  A
O120       Al128   1.888       .  S
O121        C130   1.255       .  A
O121       Al128   1.901       .  S
O122       Al128   1.921       .  S
O123        C130   1.256       .  A
O124       Al128   1.773       .  S
O125        C126   1.267       .  A
C126        C221   1.473       .  S
C127        C290   1.476       .  S
C130        C201   1.472       .  S
C131        O132   1.260       .  A
C131        C361   1.466       .  S
O133        C148   1.265       .  A
O133       Al141   1.901       .  S
C134        O144   1.264       .  A
C134        O135   1.270       .  A
C134        C230   1.474       .  S
O135       Al137   1.925       .  S
O136        C138   1.258       .  A
O136       Al137   1.896       .  S
Al137       O145   1.906       .  S
Al137       O147   1.905       .  S
Al137       O146   1.773       .  S
C138        O151   1.259       .  A
C138        C181   1.476       .  S
O139        C149   1.269       .  A
O139       Al141   1.936       .  S
O140        C153   1.268       .  A
O140       Al150   1.909       .  S
Al141       O154   1.911       .  S
Al141       O151   1.905       .  S
Al141       O146   1.780       .  S
O142        C149   1.260       .  A
O142       Al150   1.890       .  S
O143        C152   1.254       .  A
O143       Al150   1.895       .  S
O144       Al150   1.880       .  S
O145        C152   1.256       .  A
O146       Al150   1.777       .  S
O147        C148   1.265       .  A
C148        C570   1.476       .  S
C149        C310   1.483       .  S
C152        C261   1.478       .  S
C153        O154   1.266       .  A
C153        C241   1.470   1_556  S
O155        C170   1.263       .  A
O155       Al163   1.892       .  S
C156        O166   1.263       .  A
C156        O157   1.270       .  A
C156        C621   1.471       .  S
O157       Al159   1.923       .  S
O158        C160   1.257       .  A
O158       Al159   1.888       .  S
Al159       O167   1.898       .  S
Al159       O169   1.913       .  S
Al159       O168   1.767       .  S
C160        O173   1.263       .  A
C160        C190   1.476       .  S
O161        C171   1.265       .  A
O161       Al163   1.925       .  S
O162        C175   1.266       .  A
O162       Al172   1.883       .  S
Al163       O176   1.932       .  S
Al163       O173   1.921       .  S
Al163       O168   1.773       .  S
O164        C171   1.260       .  A
O164       Al172   1.897       .  S
O165        C174   1.259       .  A
O165       Al172   1.915       .  S
O166       Al172   1.878       .  S
O167        C174   1.256       .  A
O168       Al172   1.776       .  S
O169        C170   1.265       .  A
C170        C210   1.476       .  S
C171        C341   1.466       .  S
C174        C530   1.473       .  S
C175        O176   1.269       .  A
C175        C650   1.465       .  S
C177        C178   1.402       .  A
C177        C182   1.398       .  A
C177        H187   1.083       .  S
C178        C183   1.478       .  S
C178        C179   1.405       .  A
C179        C180   1.398       .  A
C179        H184   1.084       .  S
C180        C181   1.403       .  A
C180        H185   1.083       .  S
C181        C182   1.407       .  A
C182        H186   1.084       .  S
C183        C188   1.402       .  A
C183        C192   1.404       .  A
C188        C189   1.398       .  A
C188        H193   1.083       .  S
C189        C190   1.406       .  A
C189        H194   1.084       .  S
C190        C191   1.406       .  A
C191        C192   1.398       .  A
C191        H195   1.083       .  S
C192        H196   1.084       .  S
C197        C198   1.405       .  A
C197        C202   1.392       .  A
C197        H207   1.082       .  S
C198        C203   1.486       .  S
C198        C199   1.409       .  A
C199        C200   1.399       .  A
C199        H204   1.083       .  S
C200        C201   1.403       .  A
C200        H205   1.083       .  S
C201        C202   1.403       .  A
C202        H206   1.084       .  S
C203        C208   1.407       .  A
C203        C212   1.406       .  A
C208        C209   1.396       .  A
C208        H213   1.083       .  S
C209        C210   1.404       .  A
C209        H214   1.083       .  S
C210        C211   1.405       .  A
C211        C212   1.395       .  A
C211        H215   1.083       .  S
C212        H216   1.082       .  S
C217        C218   1.406       .  A
C217        C222   1.395       .  A
C217        H227   1.083       .  S
C218        C223   1.480       .  S
C218        C219   1.404       .  A
C219        C220   1.395       .  A
C219        H224   1.083       .  S
C220        C221   1.406       .  A
C220        H225   1.083       .  S
C221        C222   1.403       .  A
C222        H226   1.083       .  S
C223        C228   1.405       .  A
C223        C232   1.404       .  A
C228        C229   1.395       .  A
C228        H233   1.083       .  S
C229        C230   1.404       .  A
C229        H234   1.083       .  S
C230        C231   1.406       .  A
C231        C232   1.395       .  A
C231        H235   1.084       .  S
C232        H236   1.083       .  S
C237        C238   1.408       .  A
C237        C242   1.397       .  A
C237        H247   1.083       .  S
C238        C243   1.478       .  S
C238        C239   1.401       .  A
C239        C240   1.391       .  A
C239        H244   1.083       .  S
C240        C241   1.406       .  A
C240        H245   1.083       .  S
C241        C242   1.402       .  A
C242        H246   1.083       .  S
C243        C248   1.405       .  A
C243        C252   1.404       .  A
C248        C249   1.394       .  A
C248        H253   1.082       .  S
C249        C250   1.404       .  A
C249        H254   1.083       .  S
C250        C251   1.404       .  A
C251        C252   1.393       .  A
C251        H255   1.083       .  S
C252        H256   1.083       .  S
C257        C258   1.403       .  A
C257        C262   1.393       .  A
C257        H267   1.083       .  S
C258        C263   1.484   1_556  S
C258        C259   1.409       .  A
C259        C260   1.400       .  A
C259        H264   1.083       .  S
C260        C261   1.404       .  A
C260        H265   1.083       .  S
C261        C262   1.406       .  A
C262        H266   1.083       .  S
C263        C268   1.403       .  A
C263        C272   1.408   1_554  A
C268        C269   1.393       .  A
C268        H273   1.083       .  S
C269        C270   1.407       .  A
C269        H274   1.083       .  S
C270        C271   1.404       .  A
C271        C272   1.400   1_554  A
C271        H275   1.083       .  S
C272        H276   1.083       .  S
C277        C278   1.405       .  A
C277        C282   1.399       .  A
C277        H287   1.084       .  S
C278        C283   1.475       .  S
C278        C279   1.401       .  A
C279        C280   1.397       .  A
C279        H284   1.083       .  S
C280        C281   1.408       .  A
C280        H285   1.084       .  S
C281        C282   1.403       .  A
C282        H286   1.083       .  S
C283        C288   1.401       .  A
C283        C292   1.404       .  A
C288        C289   1.398       .  A
C288        H293   1.083       .  S
C289        C290   1.406       .  A
C289        H294   1.083       .  S
C290        C291   1.406       .  A
C291        C292   1.397       .  A
C291        H295   1.083       .  S
C292        H296   1.084       .  S
C297        C298   1.413       .  A
C297        C302   1.407       .  A
C297        H307   1.082       .  S
C298        C303   1.490   1_655  S
C298        C299   1.400       .  A
C299        C300   1.389       .  A
C299        H304   1.083       .  S
C300        C301   1.409       .  A
C300        H305   1.083       .  S
C301        C302   1.403       .  A
C302        H306   1.083       .  S
C303        C308   1.413       .  A
C303        C312   1.401       .  A
C308        C309   1.404       .  A
C308        H313   1.082       .  S
C309        C310   1.402       .  A
C309        H314   1.083       .  S
C310        C311   1.410       .  A
C311        C312   1.392       .  A
C311        H315   1.083       .  S
C312        H316   1.083       .  S
C317        C318   1.406       .  A
C317        C322   1.398   1_554  A
C317        H327   1.083   1_554  S
C318        C323   1.488       .  S
C318        C319   1.407       .  A
C319        C320   1.398       .  A
C319        H324   1.082       .  S
C320        C321   1.405   1_554  A
C320        H325   1.083       .  S
C321        C322   1.406       .  A
C322        H326   1.083       .  S
C323        C328   1.408       .  A
C323        C332   1.404       .  A
C328        C329   1.401       .  A
C328        H333   1.083       .  S
C329        C330   1.405       .  A
C329        H334   1.083       .  S
C330        C331   1.406       .  A
C331        C332   1.394       .  A
C331        H335   1.083       .  S
C332        H336   1.083       .  S
C337        C338   1.409       .  A
C337        C342   1.404       .  A
C337        H347   1.083       .  S
C338        C343   1.481   1_565  S
C338        C339   1.402       .  A
C339        C340   1.388       .  A
C339        H344   1.083       .  S
C340        C341   1.401       .  A
C340        H345   1.084       .  S
C341        C342   1.403       .  A
C342        H346   1.083       .  S
C343        C348   1.401       .  A
C343        C352   1.409       .  A
C348        C349   1.395       .  A
C348        H353   1.083       .  S
C349        C350   1.406       .  A
C349        H354   1.084       .  S
C350        C351   1.401       .  A
C351        C352   1.398       .  A
C351        H355   1.083       .  S
C352        H356   1.083       .  S
C357        C358   1.410       .  A
C357        C362   1.398       .  A
C357        H367   1.082       .  S
C358        C363   1.489       .  S
C358        C359   1.407       .  A
C359        C360   1.393       .  A
C359        H364   1.082       .  S
C360        C361   1.401       .  A
C360        H365   1.084       .  S
C361        C362   1.400       .  A
C362        H366   1.083       .  S
C363        C368   1.408       .  A
C363        C372   1.408       .  A
C368        C369   1.397       .  A
C368        H373   1.082       .  S
C369        C370   1.402       .  A
C369        H374   1.083       .  S
C370        C371   1.401       .  A
C371        C372   1.394       .  A
C371        H375   1.084       .  S
C372        H376   1.082       .  S
C377        C378   1.402       .  A
C377        C382   1.400       .  A
C377        H387   1.083       .  S
C378        C383   1.476       .  S
C378        C379   1.403       .  A
C379        C380   1.396       .  A
C379        H384   1.084       .  S
C380        C381   1.405       .  A
C380        H385   1.083       .  S
C381        C382   1.408       .  A
C382        H386   1.083       .  S
C383        C388   1.402       .  A
C383        C392   1.403       .  A
C388        C389   1.398       .  A
C388        H393   1.082       .  S
C389        C390   1.406       .  A
C389        H394   1.084       .  S
C390        C391   1.405       .  A
C391        C392   1.399       .  A
C391        H395   1.083       .  S
C392        H396   1.084       .  S
C397        C398   1.403       .  A
C397        C402   1.394       .  A
C397        H407   1.083       .  S
C398        C403   1.479       .  S
C398        C399   1.406       .  A
C399        C400   1.397       .  A
C399        H404   1.083       .  S
C400        C401   1.403       .  A
C400        H405   1.083       .  S
C401        C402   1.405       .  A
C402        H406   1.083       .  S
C403        C408   1.405       .  A
C403        C412   1.404       .  A
C408        C409   1.394       .  A
C408        H413   1.083       .  S
C409        C410   1.404       .  A
C409        H414   1.083       .  S
C410        C411   1.406       .  A
C411        C412   1.396       .  A
C411        H415   1.083       .  S
C412        H416   1.083       .  S
C417        C418   1.403       .  A
C417        C422   1.394       .  A
C417        H427   1.083       .  S
C418        C423   1.477       .  S
C418        C419   1.405       .  A
C419        C420   1.392       .  A
C419        H424   1.083       .  S
C420        C421   1.404       .  A
C420        H425   1.083       .  S
C421        C422   1.405       .  A
C422        H426   1.083       .  S
C423        C428   1.408       .  A
C423        C432   1.400       .  A
C428        C429   1.399       .  A
C428        H433   1.083       .  S
C429        C430   1.403   1_556  A
C429        H434   1.083   1_556  S
C430        C431   1.407   1_554  A
C431        C432   1.387       .  A
C431        H435   1.083   1_556  S
C432        H436   1.083       .  S
C437        C438   1.402   1_455  A
C437        C442   1.392       .  A
C437        H447   1.083       .  S
C438        C443   1.489       .  S
C438        C439   1.412   1_655  A
C439        C440   1.404       .  A
C439        H444   1.082   1_455  S
C440        C441   1.402       .  A
C440        H445   1.083       .  S
C441        C442   1.407       .  A
C442        H446   1.083       .  S
C443        C448   1.410       .  A
C443        C452   1.403       .  A
C448        C449   1.399       .  A
C448        H453   1.082       .  S
C449        C450   1.402       .  A
C449        H454   1.083       .  S
C450        C451   1.408       .  A
C451        C452   1.397       .  A
C451        H455   1.083       .  S
C452        H456   1.083       .  S
C457        C458   1.403       .  A
C457        C462   1.395       .  A
C457        H467   1.083       .  S
C458        C463   1.480       .  S
C458        C459   1.406       .  A
C459        C460   1.399       .  A
C459        H464   1.083       .  S
C460        C461   1.403       .  A
C460        H465   1.083       .  S
C461        C462   1.406       .  A
C462        H466   1.083       .  S
C463        C468   1.405       .  A
C463        C472   1.403       .  A
C468        C469   1.399       .  A
C468        H473   1.083       .  S
C469        C470   1.406       .  A
C469        H474   1.083       .  S
C470        C471   1.405       .  A
C471        C472   1.395       .  A
C471        H475   1.083       .  S
C472        H476   1.083       .  S
C477        C478   1.400       .  A
C477        C482   1.393       .  A
C477        H487   1.083       .  S
C478        C483   1.472       .  S
C478        C479   1.406       .  A
C479        C480   1.397       .  A
C479        H484   1.083       .  S
C480        C481   1.402       .  A
C480        H485   1.084       .  S
C481        C482   1.405       .  A
C482        H486   1.083       .  S
C483        C488   1.402       .  A
C483        C492   1.402       .  A
C488        C489   1.397       .  A
C488        H493   1.083       .  S
C489        C490   1.407       .  A
C489        H494   1.083       .  S
C490        C491   1.405       .  A
C491        C492   1.392       .  A
C491        H495   1.083       .  S
C492        H496   1.083       .  S
C497        C498   1.407       .  A
C497        C502   1.399       .  A
C497        H507   1.083       .  S
C498        C503   1.484       .  S
C498        C499   1.405       .  A
C499        C500   1.393       .  A
C499        H504   1.083       .  S
C500        C501   1.402       .  A
C500        H505   1.083       .  S
C501        C502   1.403       .  A
C502        H506   1.084       .  S
C503        C508   1.409       .  A
C503        C512   1.402       .  A
C508        C509   1.398       .  A
C508        H513   1.083       .  S
C509        C510   1.402       .  A
C509        H514   1.083       .  S
C510        C511   1.407       .  A
C511        C512   1.394       .  A
C511        H515   1.083       .  S
C512        H516   1.083       .  S
C517        C518   1.406       .  A
C517        C522   1.397       .  A
C517        H527   1.083       .  S
C518        C523   1.487       .  S
C518        C519   1.408       .  A
C519        C520   1.396       .  A
C519        H524   1.082       .  S
C520        C521   1.402       .  A
C520        H525   1.083       .  S
C521        C522   1.405       .  A
C522        H526   1.083       .  S
C523        C528   1.408       .  A
C523        C532   1.406       .  A
C528        C529   1.398       .  A
C528        H533   1.082       .  S
C529        C530   1.403       .  A
C529        H534   1.083       .  S
C530        C531   1.403       .  A
C531        C532   1.395       .  A
C531        H535   1.083       .  S
C532        H536   1.083       .  S
C537        C538   1.412       .  A
C537        C542   1.406       .  A
C537        H547   1.083   1_545  S
C538        C543   1.487   1_545  S
C538        C539   1.400       .  A
C539        C540   1.393       .  A
C539        H544   1.083       .  S
C540        C541   1.409       .  A
C540        H545   1.084       .  S
C541        C542   1.402       .  A
C542        H546   1.083       .  S
C543        C548   1.411       .  A
C543        C552   1.401       .  A
C548        C549   1.402       .  A
C548        H553   1.083       .  S
C549        C550   1.403       .  A
C549        H554   1.083       .  S
C550        C551   1.410       .  A
C551        C552   1.397       .  A
C551        H555   1.083       .  S
C552        H556   1.083       .  S
C557        C558   1.404       .  A
C557        C562   1.396       .  A
C557        H567   1.083       .  S
C558        C563   1.479       .  S
C558        C559   1.405       .  A
C559        C560   1.397       .  A
C559        H564   1.083       .  S
C560        C561   1.405       .  A
C560        H565   1.083       .  S
C561        C562   1.404       .  A
C562        H566   1.083       .  S
C563        C568   1.405       .  A
C563        C572   1.403       .  A
C568        C569   1.399       .  A
C568        H573   1.083       .  S
C569        C570   1.405   1_554  A
C569        H574   1.083       .  S
C570        C571   1.405       .  A
C571        C572   1.394   1_556  A
C571        H575   1.083       .  S
C572        H576   1.083       .  S
C577        C578   1.402       .  A
C577        C582   1.388       .  A
C577        H587   1.083       .  S
C578        C583   1.482       .  S
C578        C579   1.409       .  A
C579        C580   1.401       .  A
C579        H584   1.083       .  S
C580        C581   1.404       .  A
C580        H585   1.083       .  S
C581        C582   1.403       .  A
C582        H586   1.083       .  S
C583        C588   1.402   1_556  A
C583        C592   1.409       .  A
C588        C589   1.394       .  A
C588        H593   1.083       .  S
C589        C590   1.408       .  A
C589        H594   1.083       .  S
C590        C591   1.401       .  A
C591        C592   1.397   1_554  A
C591        H595   1.083       .  S
C592        H596   1.083       .  S
C597        C598   1.409       .  A
C597        C602   1.400       .  A
C597        H607   1.083       .  S
C598        C603   1.487       .  S
C598        C599   1.406       .  A
C599        C600   1.396       .  A
C599        H604   1.083       .  S
C600        C601   1.401       .  A
C600        H605   1.084       .  S
C601        C602   1.400       .  A
C602        H606   1.083       .  S
C603        C608   1.408       .  A
C603        C612   1.408       .  A
C608        C609   1.401       .  A
C608        H613   1.082       .  S
C609        C610   1.402       .  A
C609        H614   1.084       .  S
C610        C611   1.399       .  A
C611        C612   1.395       .  A
C611        H615   1.083       .  S
C612        H616   1.083       .  S
C617        C618   1.405       .  A
C617        C622   1.397       .  A
C617        H627   1.083       .  S
C618        C623   1.478       .  S
C618        C619   1.404       .  A
C619        C620   1.391       .  A
C619        H624   1.083       .  S
C620        C621   1.403       .  A
C620        H625   1.083       .  S
C621        C622   1.406       .  A
C622        H626   1.083       .  S
C623        C628   1.401       .  A
C623        C632   1.408       .  A
C628        C629   1.391       .  A
C628        H633   1.083       .  S
C629        C630   1.405   1_556  A
C629        H634   1.084       .  S
C630        C631   1.401   1_554  A
C631        C632   1.398       .  A
C631        H635   1.083       .  S
C632        H636   1.083       .  S
C637        C638   1.410       .  A
C637        C642   1.401       .  A
C637        H647   1.082       .  S
C638        C643   1.483       .  S
C638        C639   1.403       .  A
C639        C640   1.384       .  A
C639        H644   1.082       .  S
C640        C641   1.404       .  A
C640        H645   1.083       .  S
C641        C642   1.403       .  A
C642        H646   1.083       .  S
C643        C648   1.407       .  A
C643        C652   1.407       .  A
C648        C649   1.398       .  A
C648        H653   1.082       .  S
C649        C650   1.404       .  A
C649        H654   1.083       .  S
C650        C651   1.399       .  A
C651        C652   1.388       .  A
C651        H655   1.084       .  S
C652        H656   1.082       .  S
