geometry optimzed in LAMMPS
_audit_creation_date              2020-12-01 
_audit_creation_method            'lammps2cif' 
_symmetry_space_group_name_H-M    'P1' 
_symmetry_Int_Tables_number       1 
_symmetry_cell_setting            triclinic 
loop_ 
_symmetry_equiv_pos_as_xyz 
  x,y,z 
_cell_length_a                    89.94536607 
_cell_length_b                    89.98302102507333 
_cell_length_c                    37.736634293816756 
_cell_angle_alpha                 90.79148568363566 
_cell_angle_beta                  89.23082221072885 
_cell_angle_gamma                 125.1963635500412 
loop_ 
_atom_site_label 
_atom_site_type_symbol 
_atom_site_fract_x 
_atom_site_fract_y 
_atom_site_fract_z 
_atom_site_charge 
N1          N  0.55461410  0.99792186  0.49054108    -0.26100
N2          N  0.55530313  0.00308659  0.52379508    -0.34000
C3          C  0.54614201  0.01070712  0.52691267     0.02200
C4          C  0.53930407  0.01042257  0.49402436     0.08300
C5          C  0.54502566  0.00224089  0.47157219    -0.04800
H6          H  0.54450678  0.01595964  0.55149057     0.08900
H7          H  0.54190624  0.99906466  0.44374645     0.10100
Cu8        Cu  0.56763737  0.99853869  0.56416045     0.44200
Cu9        Cu  0.56592201  0.98420843  0.47355117     0.42000
Cu10       Cu  0.58144769  0.96882994  0.54380165     0.43900
N11         N  0.57775564  0.98991228  0.60156945    -0.33500
N12         N  0.58196058  0.97831551  0.59447702    -0.27700
C13         C  0.58638605  0.97411324  0.62482581    -0.03800
C14         C  0.58515092  0.98374393  0.65219829     0.08400
C15         C  0.57966725  0.99362447  0.63651892     0.02200
H16         H  0.59001642  0.96459549  0.62686524     0.09800
H17         H  0.57643840  0.00218033  0.64978257     0.08900
N18         N  0.58233776  0.96366806  0.49035794    -0.34900
N19         N  0.57716315  0.96958835  0.46473965    -0.27100
C20         C  0.58011077  0.96436973  0.43336053    -0.02300
C21         C  0.58740941  0.95456974  0.43936862     0.06300
C22         C  0.58857066  0.95446073  0.47599612     0.04400
H23         H  0.57728731  0.96770342  0.40805514     0.09500
H24         H  0.59330333  0.94792351  0.49137704     0.08300
N25         N  0.47005320  0.03690280  0.45814501    -0.26100
N26         N  0.47062612  0.03161633  0.42565287    -0.34000
C27         C  0.48307076  0.02785892  0.42394627     0.02200
C28         C  0.49080591  0.03080873  0.45706650     0.08300
C29         C  0.48215660  0.03653680  0.47816412    -0.04800
H30         H  0.48566020  0.02254124  0.40061100     0.08900
H31         H  0.48432117  0.03997455  0.50607148     0.10100
Cu32       Cu  0.45329868  0.02819272  0.38595291     0.44200
Cu33       Cu  0.45174595  0.04324529  0.47251313     0.42000
Cu34       Cu  0.41676610  0.03270550  0.40593592     0.43900
N35         N  0.43429601  0.02381142  0.34925865    -0.33500
N36         N  0.42050015  0.02491162  0.35605740    -0.27700
C37         C  0.41105918  0.02140566  0.32586031    -0.03800
C38         C  0.41956138  0.01818601  0.29894185     0.08400
C39         C  0.43415411  0.01978112  0.31488460     0.02200
H40         H  0.39936750  0.02187696  0.32338247     0.09800
H41         H  0.44412387  0.01831288  0.30228497     0.08900
N42         N  0.41851952  0.04319245  0.45670678    -0.34900
N43         N  0.43134435  0.04750929  0.47992232    -0.27100
C44         C  0.42883032  0.05466967  0.50900146    -0.02300
C45         C  0.41354529  0.05476935  0.50441713     0.06300
C46         C  0.40743632  0.04729311  0.47072743     0.04400
H47         H  0.43780024  0.05966522  0.53153408     0.09500
H48         H  0.39565294  0.04472450  0.45720637     0.08300
N49         N  0.59191500  0.98311536  0.86098883    -0.26100
N50         N  0.57410219  0.97388301  0.85693662    -0.34000
C51         C  0.57007580  0.97041061  0.82238964     0.02200
C52         C  0.58608708  0.97798681  0.80351335     0.08300
C53         C  0.59973413  0.98605776  0.82871780    -0.04800
H54         H  0.55657424  0.96394732  0.81161921     0.08900
H55         H  0.61424507  0.99386869  0.82389649     0.10100
Cu56       Cu  0.55605098  0.96934393  0.89668610     0.44200
Cu57       Cu  0.60441271  0.99181938  0.91047848     0.42000
Cu58       Cu  0.57415959  0.98647622  0.98265661     0.43900
N59         N  0.54141193  0.97121595  0.93673306    -0.33500
N60         N  0.54804012  0.97751552  0.96866801    -0.27700
C61         C  0.53598971  0.97866811  0.98765582    -0.03800
C62         C  0.52109006  0.97301723  0.96642348     0.08400
C63         C  0.52506173  0.96834547  0.93431388     0.02200
H64         H  0.53823832  0.98374912  0.01458328     0.09800
H65         H  0.51722267  0.96422903  0.91019509     0.08900
N66         N  0.60115319  0.99615097  0.98934754    -0.34900
N67         N  0.61220530  0.99806497  0.96353583    -0.27100
C68         C  0.62865178  0.00465586  0.97741929    -0.02300
C69         C  0.62795818  0.00708311  0.01373988     0.06300
C70         C  0.61025316  0.00156190  0.02009659     0.04400
H71         H  0.64017734  0.00731618  0.96208144     0.09500
H72         H  0.60440390  0.00183974  0.04509843     0.08300
N73         N  0.39932728  0.98949513  0.09569349    -0.26100
N74         N  0.41440207  0.99062473  0.10156269    -0.34000
C75         C  0.41984537  0.99618861  0.13490832     0.02200
C76         C  0.40768729  0.99873301  0.15136206     0.08300
C77         C  0.39466895  0.99421840  0.12584868    -0.04800
H78         H  0.43190846  0.99830433  0.14632985     0.08900
H79         H  0.38305923  0.99484990  0.12866818     0.10100
Cu80       Cu  0.42776932  0.98516896  0.06493998     0.44200
Cu81       Cu  0.38716104  0.98235470  0.04558678     0.42000
Cu82       Cu  0.41101670  0.97233033  0.97802904     0.43900
N83         N  0.44054722  0.97987350  0.02657690    -0.33500
N84         N  0.43447084  0.97504789  0.99388992    -0.27700
C85         C  0.44583994  0.97270038  0.97521190    -0.03800
C86         C  0.45976580  0.97630094  0.99743131     0.08400
C87         C  0.45586536  0.98075701  0.02980131     0.02200
H88         H  0.44422171  0.96895266  0.94745549     0.09800
H89         H  0.46342569  0.98416723  0.05416182     0.08900
N90         N  0.38762915  0.97115393  0.96905695    -0.34900
N91         N  0.37915051  0.97486800  0.99265372    -0.27100
C92         C  0.36460240  0.97265917  0.97704334    -0.02300
C93         C  0.36381449  0.96724371  0.94201138     0.06300
C94         C  0.37867375  0.96643560  0.93815520     0.04400
H95         H  0.35535712  0.97494280  0.99034708     0.09500
H96         H  0.38254388  0.96226873  0.91483891     0.08300
N97         N  0.38500443  0.41502677  0.62012700    -0.26100
N98         N  0.40045469  0.43047364  0.62906144    -0.34000
C99         C  0.40209298  0.43153077  0.66438983     0.02200
C100        C  0.38704957  0.41602857  0.67890309     0.08300
C101        C  0.37646676  0.40569907  0.65008023    -0.04800
H102        H  0.41344549  0.44290158  0.67856442     0.08900
H103        H  0.36331474  0.39273745  0.65090119     0.10100
Cu104      Cu  0.41903645  0.45025068  0.59437050     0.44200
Cu105      Cu  0.37634366  0.40878815  0.56723160     0.42000
Cu106      Cu  0.40762922  0.44481604  0.50369128     0.43900
N107        N  0.43626860  0.46905162  0.55688740    -0.33500
N108        N  0.43191859  0.46729294  0.52308157    -0.27700
C109        C  0.44575443  0.48155971  0.50523478    -0.03800
C110        C  0.45953405  0.49271105  0.52902645     0.08400
C111        C  0.45304692  0.48432826  0.56153510     0.02200
H112        H  0.44601341  0.48336346  0.47689066     0.09800
H113        H  0.46000955  0.48893518  0.58669060     0.08900
N114        N  0.38249091  0.42137002  0.49049900    -0.34900
N115        N  0.37120659  0.40834884  0.51291162    -0.27100
C116        C  0.35575672  0.39600644  0.49557474    -0.02300
C117        C  0.35729303  0.40153573  0.46062535     0.06300
C118        C  0.37452923  0.41765732  0.45860901     0.04400
H119        H  0.34409359  0.38413499  0.50794376     0.09500
H120        H  0.38051833  0.42669310  0.43618003     0.08300
N121        N  0.60397479  0.62159313  0.37785221    -0.26100
N122        N  0.58619133  0.60976755  0.37481563    -0.34000
C123        C  0.58141090  0.60927814  0.34111801     0.02200
C124        C  0.59687227  0.62142891  0.32153907     0.08300
C125        C  0.61100821  0.62898435  0.34581279    -0.04800
H126        H  0.56769419  0.60005059  0.33138272     0.08900
H127        H  0.62533755  0.63895025  0.34063223     0.10100
Cu128      Cu  0.56896878  0.59354070  0.41532348     0.44200
Cu129      Cu  0.61724316  0.62590989  0.42570448     0.42000
Cu130      Cu  0.58831739  0.59485877  0.49811604     0.43900
N131        N  0.55363630  0.57687930  0.45709986    -0.33500
N132        N  0.56067259  0.57713538  0.48775597    -0.27700
C133        C  0.54726008  0.56439161  0.50890709    -0.03800
C134        C  0.53095724  0.55564673  0.49055159     0.08400
C135        C  0.53563199  0.56399006  0.45775423     0.02200
H136        H  0.54928928  0.56177542  0.53566064     0.09800
H137        H  0.52674949  0.56060239  0.43545913     0.08900
N138        N  0.61596834  0.61526905  0.50232785    -0.34900
N139        N  0.62624548  0.62667393  0.47674281    -0.27100
C140        C  0.64311076  0.63869253  0.48931124    -0.02300
C141        C  0.64360174  0.63469217  0.52451846     0.06300
C142        C  0.62608376  0.61965470  0.53163031     0.04400
H143        H  0.65403969  0.64978137  0.47394759     0.09500
H144        H  0.62094056  0.61227006  0.55622898     0.08300
N145        N  0.59773907  0.62195037  0.11081336    -0.26100
N146        N  0.58199407  0.60637780  0.11752522    -0.34000
C147        C  0.57913566  0.60460101  0.15266118     0.02200
C148        C  0.59383955  0.61970406  0.16909249     0.08300
C149        C  0.60548542  0.63044158  0.14180934    -0.04800
H150        H  0.56736609  0.59295086  0.16537906     0.08900
H151        H  0.61843896  0.64351983  0.14426604     0.10100
Cu152      Cu  0.56564938  0.58744238  0.07918747     0.44200
Cu153      Cu  0.60699386  0.63043785  0.05920217     0.42000
Cu154      Cu  0.58184702  0.59592620  0.98918243     0.43900
N155        N  0.55320984  0.56823923  0.03921150    -0.33500
N156        N  0.55938589  0.57098628  0.00632406    -0.27700
C157        C  0.54857770  0.55558372  0.98745332    -0.03800
C158        C  0.53485829  0.54246334  0.00960028     0.08400
C159        C  0.53831453  0.55113506  0.04219084     0.02200
H160        H  0.55071637  0.55413650  0.95972396     0.09800
H161        H  0.53043136  0.54564238  0.06633937     0.08900
N162        N  0.60293533  0.62292482  0.97987024    -0.34900
N163        N  0.61165311  0.63540184  0.00503725    -0.27100
C164        C  0.62305973  0.65170719  0.98979822    -0.02300
C165        C  0.62156647  0.64940298  0.95336332     0.06300
C166        C  0.60874738  0.63097200  0.94802939     0.04400
H167        H  0.63149772  0.66438982  0.00424125     0.09500
H168        H  0.60329192  0.62406584  0.92290048     0.08300
N169        N  0.38939432  0.40224152  0.88517404    -0.26100
N170        N  0.40225860  0.41976785  0.88140908    -0.34000
C171        C  0.40187945  0.42479011  0.84838441     0.02200
C172        C  0.38806928  0.40979152  0.82996910     0.08300
C173        C  0.38044774  0.39561713  0.85415013    -0.04800
H174        H  0.41163743  0.43826859  0.83804716     0.08900
H175        H  0.36944756  0.38153245  0.84944777     0.10100
Cu176      Cu  0.42158649  0.43609927  0.91885949     0.44200
Cu177      Cu  0.38625770  0.38877867  0.93234550     0.42000
Cu178      Cu  0.42601604  0.41518382  0.99245293     0.43900
N179        N  0.44336877  0.44993331  0.95277502    -0.33500
N180        N  0.44565401  0.44212623  0.97940544    -0.27700
C181        C  0.46167419  0.45443907  0.99498501    -0.03800
C182        C  0.46987232  0.47087785  0.97719033     0.08400
C183        C  0.45767364  0.46737291  0.95071069     0.02200
H184        H  0.46694494  0.45147437  0.01731431     0.09800
H185        H  0.45885159  0.47677356  0.93142515     0.08900
N186        N  0.40305109  0.38910008  0.00205629    -0.34900
N187        N  0.38858274  0.37978078  0.98140505    -0.27100
C188        C  0.37628914  0.36368302  0.99679351    -0.02300
C189        C  0.38342897  0.36277824  0.02837140     0.06300
C190        C  0.40038080  0.37913979  0.03074762     0.04400
H191        H  0.36332270  0.35321294  0.98533213     0.09500
H192        H  0.41007880  0.38360083  0.05198596     0.08300
N193        N  0.77925008  0.68207411  0.14655287    -0.26100
N194        N  0.78411228  0.68252841  0.11314260    -0.34000
C195        C  0.79508449  0.67695192  0.11105568     0.02200
C196        C  0.79732433  0.67262587  0.14468745     0.08300
C197        C  0.78714505  0.67616745  0.16665765    -0.04800
H198        H  0.80097321  0.67610942  0.08659842     0.08900
H199        H  0.78520776  0.67414106  0.19498445     0.10100
Cu200      Cu  0.77507448  0.68942491  0.07050661     0.44200
Cu201      Cu  0.76162633  0.68911974  0.16216805     0.42000
Cu202      Cu  0.74192051  0.69786780  0.08719347     0.43900
N203        N  0.76239324  0.69349835  0.03033108    -0.33500
N204        N  0.74937564  0.69582440  0.03643648    -0.27700
C205        C  0.74342972  0.69764803  0.00536944    -0.03800
C206        C  0.75341429  0.69664020  0.97848250     0.08400
C207        C  0.76532086  0.69402553  0.99523649     0.02200
H208        H  0.73312201  0.70019430  0.00266046     0.09800
H209        H  0.77538228  0.69263728  0.98283805     0.08900
N210        N  0.73793557  0.70123588  0.13984154    -0.34900
N211        N  0.74454728  0.69782836  0.16718463    -0.27100
C212        C  0.73891295  0.70151393  0.19719689    -0.02300
C213        C  0.72834302  0.70764558  0.18825846     0.06300
C214        C  0.72822143  0.70734189  0.15156588     0.04400
H215        H  0.74221288  0.69969666  0.22349757     0.09500
H216        H  0.72190628  0.71162256  0.13423360     0.08300
N217        N  0.85927600  0.63686778  0.17210799    -0.26100
N218        N  0.85494606  0.63596241  0.20599478    -0.34000
C219        C  0.84391647  0.64141571  0.21034072     0.02200
C220        C  0.84099541  0.64599122  0.17758515     0.08300
C221        C  0.85094800  0.64288451  0.15391727    -0.04800
H222        H  0.83836447  0.64187946  0.23559945     0.08900
H223        H  0.85233189  0.64515518  0.12563298     0.10100
Cu224      Cu  0.86501379  0.62850836  0.24542949     0.44200
Cu225      Cu  0.87669785  0.63009107  0.15303199     0.42000
Cu226      Cu  0.90076961  0.62370612  0.22179175     0.43900
N227        N  0.88022152  0.62599499  0.28203000    -0.33500
N228        N  0.89415520  0.62535785  0.27370183    -0.27700
C229        C  0.90225897  0.62563772  0.30369108    -0.03800
C230        C  0.89271638  0.62620973  0.33212217     0.08400
C231        C  0.87887723  0.62644136  0.31738805     0.02200
H232        H  0.91415664  0.62543541  0.30468001     0.09800
H233        H  0.86902078  0.62765219  0.33130890     0.08900
N234        N  0.90214353  0.61910417  0.16833902    -0.34900
N235        N  0.89374176  0.62157610  0.14311734    -0.27100
C236        C  0.89714425  0.61661786  0.11185689    -0.02300
C237        C  0.90805110  0.61047099  0.11760088     0.06300
C238        C  0.91081681  0.61231314  0.15398941     0.04400
H239        H  0.89187945  0.61739403  0.08692434     0.09500
H240        H  0.91797810  0.60836010  0.16955523     0.08300
N241        N  0.74491321  0.69530485  0.76967399    -0.26100
N242        N  0.76134415  0.69905294  0.77297237    -0.34000
C243        C  0.76631133  0.70249454  0.80697897     0.02200
C244        C  0.75242860  0.70093531  0.82665693     0.08300
C245        C  0.73895292  0.69627870  0.80207001    -0.04800
H246        H  0.77873756  0.70482634  0.81681998     0.08900
H247        H  0.72567408  0.69336924  0.80734246     0.10100
Cu248      Cu  0.77592657  0.69720245  0.73318680     0.44200
Cu249      Cu  0.73159735  0.68762032  0.72094983     0.42000
Cu250      Cu  0.75599833  0.68056103  0.64956492     0.43900
N251        N  0.78821959  0.69200021  0.69371356    -0.33500
N252        N  0.78088287  0.68564005  0.66227157    -0.27700
C253        C  0.79177668  0.68288897  0.64292228    -0.03800
C254        C  0.80664230  0.68770831  0.66348661     0.08400
C255        C  0.80388874  0.69346244  0.69549808     0.02200
H256        H  0.78878909  0.67727547  0.61634777     0.09800
H257        H  0.81255293  0.69831932  0.71854483     0.08900
N258        N  0.73099932  0.67653764  0.64414180    -0.34900
N259        N  0.72227342  0.67917810  0.66914989    -0.27100
C260        C  0.70633749  0.67473375  0.65597511    -0.02300
C261        C  0.70489564  0.66893391  0.62106578     0.06300
C262        C  0.72084258  0.67029690  0.61471031     0.04400
H263        H  0.69651666  0.67556887  0.67098025     0.09500
H264        H  0.72459643  0.66637018  0.59086813     0.08300
N265        N  0.91658694  0.65573714  0.53178381    -0.26100
N266        N  0.90041518  0.65264025  0.52862637    -0.34000
C267        C  0.89313211  0.64435668  0.49760274     0.02200
C268        C  0.90525851  0.64211023  0.47996761     0.08300
C269        C  0.92010513  0.64958708  0.50232528    -0.04800
H270        H  0.88034191  0.64115902  0.48777260     0.08900
H271        H  0.93260911  0.65075039  0.49737976     0.10100
Cu272      Cu  0.88932655  0.66141284  0.56366389     0.44200
Cu273      Cu  0.93272857  0.66862073  0.57604486     0.42000
Cu274      Cu  0.91444895  0.68579179  0.64003348     0.43900
N275        N  0.88085937  0.67277149  0.59873557    -0.33500
N276        N  0.89000721  0.68171705  0.62751880    -0.27700
C277        C  0.88077727  0.68703893  0.64540580    -0.03800
C278        C  0.86518425  0.68127657  0.62656781     0.08400
C279        C  0.86570317  0.67230123  0.59712169     0.02200
H280        H  0.88513496  0.69459367  0.67011345     0.09800
H281        H  0.85562371  0.66555862  0.57644381     0.08900
N282        N  0.93771495  0.68666592  0.64750670    -0.34900
N283        N  0.94425146  0.68040676  0.62483894    -0.27100
C284        C  0.95899416  0.68251902  0.63907497    -0.02300
C285        C  0.96192603  0.69051759  0.67230010     0.06300
C286        C  0.94815871  0.69298173  0.67656497     0.04400
H287        H  0.96669685  0.67811342  0.62637924     0.09500
H288        H  0.94586751  0.69903548  0.69901491     0.08300
N289        N  0.65642049  0.77261216  0.31749236    -0.26100
N290        N  0.65322159  0.77455140  0.35093271    -0.34000
C291        C  0.64747898  0.78537181  0.35273693     0.02200
C292        C  0.64695281  0.79063149  0.31885324     0.08300
C293        C  0.65257991  0.78216178  0.29699286    -0.04800
H294        H  0.64405833  0.78922270  0.37715253     0.08900
H295        H  0.65442055  0.78341904  0.26853342     0.10100
Cu296      Cu  0.65736128  0.76343703  0.39379541     0.44200
Cu297      Cu  0.66728010  0.75813305  0.30299564     0.42000
Cu298      Cu  0.67738759  0.73988637  0.37935106     0.43900
N299        N  0.66316917  0.75261718  0.43464685    -0.33500
N300        N  0.67094642  0.74404311  0.42952198    -0.27700
C301        C  0.67420085  0.73976690  0.46112902    -0.03800
C302        C  0.66811674  0.74596035  0.48759455     0.08400
C303        C  0.66108247  0.75393142  0.46954886     0.02200
H304        H  0.68122840  0.73337105  0.46444935     0.09800
H305        H  0.65507097  0.76047511  0.48070393     0.08900
N306        N  0.68329841  0.73803959  0.32707982    -0.34900
N307        N  0.67972967  0.74439057  0.29946508    -0.27100
C308        C  0.68591692  0.74095333  0.26997507    -0.02300
C309        C  0.69379400  0.73211577  0.27958532     0.06300
C310        C  0.69179412  0.73049721  0.31597888     0.04400
H311        H  0.68511353  0.74499011  0.24359354     0.09500
H312        H  0.69607639  0.72417461  0.33332962     0.08300
N313        N  0.62027588  0.85991049  0.28911352    -0.26100
N314        N  0.62025628  0.85598321  0.25529587    -0.34000
C315        C  0.62420740  0.84376290  0.25189529     0.02200
C316        C  0.62678486  0.83951247  0.28528082     0.08300
C317        C  0.62417766  0.85006486  0.30835290    -0.04800
H318        H  0.62566708  0.83884326  0.22670345     0.08900
H319        H  0.62504739  0.85058741  0.33694629     0.10100
Cu320      Cu  0.61590275  0.86798674  0.21486581     0.44200
Cu321      Cu  0.61567137  0.87926130  0.30538091     0.42000
Cu322      Cu  0.61140014  0.90408486  0.23183627     0.43900
N323        N  0.61483321  0.88268093  0.17526291    -0.33500
N324        N  0.61386983  0.89662591  0.18067509    -0.27700
C325        C  0.61542409  0.90431072  0.14911131    -0.03800
C326        C  0.61722775  0.89445561  0.12282721     0.08400
C327        C  0.61681904  0.88091943  0.14057612     0.02200
H328        H  0.61554742  0.91629588  0.14564257     0.09800
H329        H  0.61882344  0.87106344  0.12933245     0.08900
N330        N  0.60922421  0.90793951  0.28584860    -0.34900
N331        N  0.61093887  0.89934997  0.31199151    -0.27100
C332        C  0.60866161  0.90535861  0.34310106    -0.02300
C333        C  0.60522466  0.91822411  0.33635258     0.06300
C334        C  0.60570444  0.91946787  0.29974863     0.04400
H335        H  0.60898298  0.90032731  0.36875119     0.09500
H336        H  0.60370896  0.92818956  0.28419645     0.08300
N337        N  0.67920827  0.74217778  0.69557637    -0.26100
N338        N  0.69007738  0.76004684  0.69203838    -0.34000
C339        C  0.69155417  0.76422586  0.65764697     0.02200
C340        C  0.68096208  0.74831231  0.63828019     0.08300
C341        C  0.67347095  0.73452950  0.66316972    -0.04800
H342        H  0.69907740  0.77798125  0.64776326     0.08900
H343        H  0.66363189  0.72013415  0.65837773     0.10100
Cu344      Cu  0.69947987  0.77879919  0.73292639     0.44200
Cu345      Cu  0.67100478  0.72943854  0.74474400     0.42000
Cu346      Cu  0.68377407  0.76144569  0.81855227     0.43900
N347        N  0.70077818  0.79475222  0.77429377    -0.33500
N348        N  0.69464924  0.78818154  0.80630119    -0.27700
C349        C  0.69414987  0.80048287  0.82586504    -0.03800
C350        C  0.70012459  0.81554142  0.80501212     0.08400
C351        C  0.70434687  0.81142564  0.77249195     0.02200
H352        H  0.68833272  0.79795239  0.85222367     0.09800
H353        H  0.70860657  0.81941060  0.74857286     0.08900
N354        N  0.67025806  0.73368785  0.82418020    -0.34900
N355        N  0.66529272  0.72189313  0.79786173    -0.27100
C356        C  0.65613453  0.70501302  0.81145513    -0.02300
C357        C  0.65527284  0.70629445  0.84805846     0.06300
C358        C  0.66446816  0.72471874  0.85497826     0.04400
H359        H  0.65020202  0.69272681  0.79572362     0.09500
H360        H  0.66689762  0.73126736  0.88057122     0.08300
N361        N  0.65557014  0.91774426  0.92654421    -0.26100
N362        N  0.65563506  0.90340521  0.93336720    -0.34000
C363        C  0.64713714  0.89621053  0.96436032     0.02200
C364        C  0.64154255  0.90654035  0.97813888     0.08300
C365        C  0.64719817  0.92018651  0.95357652    -0.04800
H366        H  0.64581534  0.88471211  0.97669251     0.08900
H367        H  0.64549612  0.93113539  0.95533847     0.10100
Cu368      Cu  0.66829090  0.89456115  0.90258759     0.44200
Cu369      Cu  0.66730256  0.93328106  0.88090836     0.42000
Cu370      Cu  0.69056421  0.91897316  0.82414435     0.43900
N371        N  0.68131943  0.88734755  0.86854525    -0.33500
N372        N  0.68929832  0.89615034  0.83889481    -0.27700
C373        C  0.69547764  0.88759577  0.82132407    -0.03800
C374        C  0.69128277  0.87275739  0.84112557     0.08400
C375        C  0.68234486  0.87307694  0.87094639     0.02200
H376        H  0.70239504  0.89180689  0.79594553     0.09800
H377        H  0.67638689  0.86326527  0.89216888     0.08900
N378        N  0.68950079  0.94094149  0.81395955    -0.34900
N379        N  0.68075643  0.94592748  0.83362500    -0.27100
C380        C  0.68269221  0.96045796  0.81858161    -0.02300
C381        C  0.69333060  0.96490759  0.78833120     0.06300
C382        C  0.69737884  0.95225214  0.78631777     0.04400
H383        H  0.67717813  0.96754398  0.82937797     0.09500
H384        H  0.70539740  0.95124609  0.76607361     0.08300
N385        N  0.05398886  0.72324421  0.92387862    -0.26100
N386        N  0.07079633  0.73734101  0.93048441    -0.34000
C387        C  0.07452789  0.73726122  0.96469583     0.02200
C388        C  0.05941312  0.72240554  0.98079682     0.08300
C389        C  0.04651928  0.71384313  0.95416016    -0.04800
H390        H  0.08731440  0.74750851  0.97705754     0.08900
H391        H  0.03285064  0.70161704  0.95647394     0.10100
Cu392      Cu  0.08853643  0.75640246  0.89375157     0.44200
Cu393      Cu  0.04262127  0.71798383  0.87351981     0.42000
Cu394      Cu  0.07422083  0.74943483  0.80452875     0.43900
N395        N  0.10509022  0.77351454  0.85348855    -0.33500
N396        N  0.09990186  0.77079424  0.82011239    -0.27700
C397        C  0.11358735  0.78396436  0.80012676    -0.03800
C398        C  0.12815402  0.79557573  0.82210159     0.08400
C399        C  0.12222195  0.78847205  0.85578457     0.02200
H400        H  0.11282895  0.78509582  0.77181223     0.09800
H401        H  0.12987250  0.79353003  0.88013794     0.08900
N402        N  0.04706780  0.72900880  0.79640184    -0.34900
N403        N  0.03555697  0.71773623  0.82097105    -0.27100
C404        C  0.01880326  0.70733925  0.80686725    -0.02300
C405        C  0.01982219  0.71235430  0.77181179     0.06300
C406        C  0.03799028  0.72610429  0.76623332     0.04400
H407        H  0.00674620  0.69713230  0.82137806     0.09500
H408        H  0.04409319  0.73414116  0.74255165     0.08300
N409        N  0.27240074  0.93319206  0.68447071    -0.26100
N410        N  0.25547611  0.91902574  0.67913797    -0.34000
C411        C  0.25036232  0.91958347  0.64638456     0.02200
C412        C  0.26464124  0.93481822  0.62969088     0.08300
C413        C  0.27857606  0.94313755  0.65447035    -0.04800
H414        H  0.23719733  0.90933214  0.63532166     0.08900
H415        H  0.29204433  0.95553481  0.65111268     0.10100
Cu416      Cu  0.23906710  0.89900806  0.71491344     0.44200
Cu417      Cu  0.28525792  0.93773133  0.73332955     0.42000
Cu418      Cu  0.25413896  0.90407462  0.80151782     0.43900
N419        N  0.22276940  0.88080497  0.75349621    -0.33500
N420        N  0.22816145  0.88278621  0.78658074    -0.27700
C421        C  0.21440540  0.86937283  0.80610557    -0.03800
C422        C  0.19966304  0.85842802  0.78396528     0.08400
C423        C  0.20552393  0.86612886  0.75077183     0.02200
H424        H  0.21513216  0.86770059  0.83421724     0.09800
H425        H  0.19770193  0.86176986  0.72659824     0.08900
N426        N  0.28108263  0.92545274  0.80977675    -0.34900
N427        N  0.29242368  0.93747724  0.78590091    -0.27100
C428        C  0.30886605  0.94875642  0.80106512    -0.02300
C429        C  0.30780311  0.94358458  0.83611115     0.06300
C430        C  0.28994907  0.92873730  0.84038093     0.04400
H431        H  0.32069416  0.95987313  0.78744986     0.09500
H432        H  0.28387777  0.92037982  0.86368510     0.08300
N433        N  0.25761884  0.94105953  0.42229009    -0.26100
N434        N  0.24215528  0.92546704  0.43028182    -0.34000
C435        C  0.24093662  0.92321654  0.46545745     0.02200
C436        C  0.25638455  0.93807592  0.48064373     0.08300
C437        C  0.26680781  0.94913687  0.45250824    -0.04800
H438        H  0.22965297  0.91148192  0.47897848     0.08900
H439        H  0.27980438  0.96223396  0.45394970     0.10100
Cu440      Cu  0.22343416  0.90735570  0.39370968     0.44200
Cu441      Cu  0.26408009  0.95040187  0.37043471     0.42000
Cu442      Cu  0.23145854  0.91874369  0.30213032     0.43900
N443        N  0.20773232  0.88903117  0.35428220    -0.33500
N444        N  0.21075101  0.89286401  0.32019892    -0.27700
C445        C  0.19849485  0.87783151  0.30155468    -0.03800
C446        C  0.18722243  0.86388103  0.32519270     0.08400
C447        C  0.19357203  0.87161435  0.35837671     0.02200
H448        H  0.19798131  0.87711228  0.27292789     0.09800
H449        H  0.18818625  0.86520565  0.38380986     0.08900
N450        N  0.25254140  0.94603576  0.29343772    -0.34900
N451        N  0.26440303  0.95714046  0.31775467    -0.27100
C452        C  0.27568382  0.97376775  0.30369624    -0.02300
C453        C  0.27069490  0.97335634  0.26884763     0.06300
C454        C  0.25595199  0.95544070  0.26338324     0.04400
H455        H  0.28664552  0.98530835  0.31818430     0.09500
H456        H  0.24779201  0.94970361  0.23974998     0.08300
N457        N  0.05683190  0.71401658  0.19014392    -0.26100
N458        N  0.07176074  0.73036321  0.18403671    -0.34000
C459        C  0.07418139  0.73311967  0.14901991     0.02200
C460        C  0.06006488  0.71782857  0.13194370     0.08300
C461        C  0.04916099  0.70593703  0.15878144    -0.04800
H462        H  0.08548436  0.74538268  0.13683524     0.08900
H463        H  0.03697089  0.69229456  0.15573007     0.10100
Cu464      Cu  0.08852098  0.74832747  0.22306624     0.44200
Cu465      Cu  0.04931298  0.70406199  0.24156036     0.42000
Cu466      Cu  0.07846830  0.73621942  0.31423542     0.43900
N467        N  0.10411718  0.76580094  0.26369838    -0.33500
N468        N  0.10058098  0.76173004  0.29762634    -0.27700
C469        C  0.11320777  0.77631998  0.31691955    -0.03800
C470        C  0.12518243  0.79023327  0.29381676     0.08400
C471        C  0.11894069  0.78290735  0.26034308     0.02200
H472        H  0.11339824  0.77685843  0.34557245     0.09800
H473        H  0.12476196  0.78943114  0.23516529     0.08900
N474        N  0.05654351  0.70910870  0.32119790    -0.34900
N475        N  0.04650208  0.69768825  0.29524506    -0.27100
C476        C  0.03455444  0.68110415  0.30898550    -0.02300
C477        C  0.03703001  0.68204588  0.34527242     0.06300
C478        C  0.05102827  0.70003128  0.35209029     0.04400
H479        H  0.02484296  0.66917098  0.29354146     0.09500
H480        H  0.05725246  0.70594427  0.37747005     0.08300
N481        N  0.99273176  0.40271018  0.36219072    -0.26100
N482        N  0.99367431  0.41776153  0.35753801    -0.34000
C483        C  0.99594354  0.42185963  0.32302584     0.02200
C484        C  0.99652673  0.40884376  0.30469186     0.08300
C485        C  0.99456286  0.39688674  0.33030765    -0.04800
H486        H  0.99627484  0.43306409  0.31188172     0.08900
H487        H  0.99340053  0.38435335  0.32585758     0.10100
Cu488      Cu  0.98918509  0.43096878  0.39648503     0.44200
Cu489      Cu  0.98655849  0.39028968  0.41172488     0.42000
Cu490      Cu  0.97071792  0.40928841  0.47857176     0.43900
N491        N  0.98073038  0.44112020  0.43466906    -0.33500
N492        N  0.97332644  0.43294203  0.46507877    -0.27700
C493        C  0.96887337  0.44273899  0.48371424    -0.03800
C494        C  0.97386096  0.45786714  0.46391749     0.08400
C495        C  0.98126083  0.45628722  0.43295486     0.02200
H496        H  0.96280249  0.43927984  0.50990740     0.09800
H497        H  0.98638786  0.46531338  0.41045328     0.08900
N498        N  0.97248320  0.38761536  0.48690536    -0.34900
N499        N  0.97842612  0.38099212  0.46362509    -0.27100
C500        C  0.97798582  0.36729123  0.47883172    -0.02300
C501        C  0.97144814  0.36515604  0.51329037     0.06300
C502        C  0.96809494  0.37829854  0.51726153     0.04400
H503        H  0.98223268  0.35955747  0.46566453     0.09500
H504        H  0.96248230  0.38074643  0.54028304     0.08300
N505        N  0.96961352  0.58393287  0.59437606    -0.26100
N506        N  0.95979686  0.56605596  0.59778353    -0.34000
C507        C  0.95473166  0.56170895  0.63178567     0.02200
C508        C  0.96179004  0.57756741  0.65096383     0.08300
C509        C  0.97125902  0.59145383  0.62651059    -0.04800
H510        H  0.94744647  0.54805628  0.64217311     0.08900
H511        H  0.97909771  0.60592117  0.63180773     0.10100
Cu512      Cu  0.95623308  0.54822791  0.55833081     0.44200
Cu513      Cu  0.98073068  0.59697634  0.54612284     0.42000
Cu514      Cu  0.97421142  0.56663835  0.47317510     0.43900
N515        N  0.95976400  0.53417705  0.51951816    -0.33500
N516        N  0.96676057  0.54108874  0.48805214    -0.27700
C517        C  0.96981800  0.52994475  0.47063312    -0.03800
C518        C  0.96447451  0.51530371  0.49229409     0.08400
C519        C  0.95808634  0.51843331  0.52301783     0.02200
H520        H  0.97608129  0.53266367  0.44467133     0.09800
H521        H  0.95372734  0.51053411  0.54707868     0.08900
N522        N  0.98499234  0.59397955  0.46727137    -0.34900
N523        N  0.98829261  0.60524857  0.49369680    -0.27100
C524        C  0.99705193  0.62222629  0.48083697    -0.02300
C525        C  0.99933596  0.62171904  0.44433248     0.06300
C526        C  0.99125929  0.60339490  0.43697105     0.04400
H527        H  0.00183394  0.63403827  0.49737117     0.09500
H528        H  0.99001940  0.59709074  0.41161899     0.08300
N529        N  0.97115845  0.54124739  0.96451222    -0.26100
N530        N  0.97717642  0.54287802  0.93166408    -0.34000
C531        C  0.98414224  0.53315808  0.92765886     0.02200
C532        C  0.98250690  0.52485266  0.95949202     0.08300
C533        C  0.97425331  0.53039012  0.98235626    -0.04800
H534        H  0.98989376  0.53217822  0.90313066     0.08900
H535        H  0.97025992  0.52636779  0.00963475     0.10100
Cu536      Cu  0.97437692  0.55687655  0.89242860     0.44200
Cu537      Cu  0.95824280  0.55343551  0.98196657     0.42000
Cu538      Cu  0.94631867  0.57244339  0.91106628     0.43900
N539        N  0.96652969  0.56720502  0.85416817    -0.33500
N540        N  0.95532380  0.57198884  0.86034202    -0.27700
C541        C  0.95163074  0.57650286  0.82941821    -0.03800
C542        C  0.96126543  0.57473117  0.80279917     0.08400
C543        C  0.97053190  0.56881834  0.81941839     0.02200
H544        H  0.94269478  0.58081126  0.82655786     0.09800
H545        H  0.97905723  0.56532814  0.80697937     0.08900
N546        N  0.94139293  0.57364358  0.96464977    -0.34900
N547        N  0.94576290  0.56701519  0.99041528    -0.27100
C548        C  0.94118668  0.57083015  0.02170238    -0.02300
C549        C  0.93355872  0.58028920  0.01538383     0.06300
C550        C  0.93397353  0.58177580  0.97882678     0.04400
H551        H  0.94320820  0.56690810  0.04717905     0.09500
H552        H  0.92967368  0.58873156  0.96351188     0.08300
N553        N  0.00959887  0.45517718  0.98704571    -0.26100
N554        N  0.00293657  0.45420648  0.01901442    -0.34000
C555        C  0.99786919  0.46558715  0.02142286     0.02200
C556        C  0.00145455  0.47440234  0.98945518     0.08300
C557        C  0.00882028  0.46735668  0.96806288    -0.04800
H558        H  0.99178094  0.46711279  0.04480865     0.08900
H559        H  0.01349922  0.47099943  0.94096968     0.10100
Cu560      Cu  0.00129814  0.43806495  0.05912317     0.44200
Cu561      Cu  0.01937424  0.43947370  0.97288208     0.42000
Cu562      Cu  0.01778084  0.41087795  0.04575453     0.43900
N563        N  0.00242692  0.42351914  0.09927348    -0.33500
N564        N  0.00869398  0.41347269  0.09513865    -0.27700
C565        C  0.00832692  0.40652734  0.12688053    -0.03800
C566        C  0.00139983  0.41250745  0.15207834     0.08400
C567        C  0.99792711  0.42331316  0.13335694     0.02200
H568        H  0.01276832  0.39780232  0.13120354     0.09800
H569        H  0.99307895  0.43105460  0.14383167     0.08900
N570        N  0.02634879  0.41122355  0.99379368    -0.34900
N571        N  0.02722961  0.42148543  0.96786294    -0.27100
C572        C  0.03358007  0.41814249  0.93840991    -0.02300
C573        C  0.03681927  0.40511023  0.94589156     0.06300
C574        C  0.03196546  0.40111594  0.98138993     0.04400
H575        H  0.03586720  0.42494464  0.91346556     0.09500
H576        H  0.03213835  0.39129494  0.99721315     0.08300
N577        N  0.20448333  0.31417783  0.83623944    -0.26100
N578        N  0.20380746  0.31887344  0.86923280    -0.34000
C579        C  0.19192886  0.32336423  0.87151643     0.02200
C580        C  0.18453481  0.32132781  0.83839106     0.08300
C581        C  0.19276944  0.31538014  0.81662948    -0.04800
H582        H  0.18861293  0.32741788  0.89580121     0.08900
H583        H  0.19052393  0.31230591  0.78858561     0.10100
Cu584      Cu  0.21864381  0.31845786  0.91004400     0.44200
Cu585      Cu  0.22169854  0.30646774  0.82106908     0.42000
Cu586      Cu  0.25009377  0.30677897  0.89237560     0.43900
N587        N  0.23432364  0.31784781  0.94871062    -0.33500
N588        N  0.24648549  0.31426424  0.94283917    -0.27700
C589        C  0.25428522  0.31528512  0.97401929    -0.03800
C590        C  0.24632074  0.31941057  0.00054101     0.08400
C591        C  0.23379132  0.32091704  0.98341481     0.02200
H592        H  0.26448316  0.31262904  0.97730608     0.09800
H593        H  0.22485345  0.32399629  0.99539443     0.08900
N594        N  0.24910118  0.29813838  0.84005598    -0.34900
N595        N  0.23931424  0.29837626  0.81448634    -0.27100
C596        C  0.24179768  0.29166041  0.78460278    -0.02300
C597        C  0.25351950  0.28661674  0.79141867     0.06300
C598        C  0.25778796  0.29103304  0.82709537     0.04400
H599        H  0.23538274  0.29056956  0.75978076     0.09500
H600        H  0.26614312  0.28876207  0.84316050     0.08300
N601        N  0.10863219  0.34005226  0.80989910    -0.26100
N602        N  0.10496061  0.33020766  0.78082223    -0.34000
C603        C  0.11620756  0.32496517  0.77820604     0.02200
C604        C  0.12761822  0.33153784  0.80731341     0.08300
C605        C  0.12232266  0.34108135  0.82688658    -0.04800
H606        H  0.11634901  0.31742258  0.75583387     0.08900
H607        H  0.12789861  0.34821712  0.85173426     0.10100
Cu608      Cu  0.08590666  0.32527809  0.74396957     0.44200
Cu609      Cu  0.09486436  0.35201574  0.82316409     0.42000
Cu610      Cu  0.06420125  0.34813162  0.75425382     0.43900
N611        N  0.07202145  0.32734963  0.70370868    -0.33500
N612        N  0.06464522  0.33644171  0.70657739    -0.27700
C613        C  0.05985367  0.33819153  0.67405049    -0.03800
C614        C  0.06457653  0.32987217  0.64959086     0.08400
C615        C  0.07206433  0.32298603  0.66960147     0.02200
H616        H  0.05466698  0.34615860  0.66835397     0.09800
H617        H  0.07817766  0.31627595  0.66001612     0.08900
N618        N  0.06688171  0.35949719  0.80431554    -0.34900
N619        N  0.07820349  0.36140114  0.82893606    -0.27100
C620        C  0.07658500  0.36954881  0.85754590    -0.02300
C621        C  0.06347315  0.37283498  0.85099892     0.06300
C622        C  0.05769293  0.36614077  0.81677545     0.04400
H623        H  0.08457541  0.37291686  0.88125004     0.09500
H624        H  0.04725654  0.36569189  0.80191066     0.08300
N625        N  0.26215120  0.34744294  0.20387522    -0.26100
N626        N  0.24608954  0.34432128  0.19837990    -0.34000
C627        C  0.24042522  0.33743455  0.16565581     0.02200
C628        C  0.25348749  0.33610485  0.14932765     0.08300
C629        C  0.26718807  0.34271189  0.17432562    -0.04800
H630        H  0.22784537  0.33406344  0.15426243     0.08900
H631        H  0.27978349  0.34384574  0.17139857     0.10100
Cu632      Cu  0.23245244  0.34998968  0.23450675     0.44200
Cu633      Cu  0.27587544  0.35782452  0.25206298     0.42000
Cu634      Cu  0.25230650  0.36786809  0.31910180     0.43900
N635        N  0.22064800  0.35680091  0.27280526    -0.33500
N636        N  0.22781838  0.36343751  0.30430610    -0.27700
C637        C  0.21669308  0.36616033  0.32302542    -0.03800
C638        C  0.20174801  0.36087845  0.30220698     0.08400
C639        C  0.20486234  0.35511686  0.27050814     0.02200
H640        H  0.21910921  0.37118451  0.35002728     0.09800
H641        H  0.19633892  0.35011963  0.24725674     0.08900
N642        N  0.27682616  0.37095765  0.32721399    -0.34900
N643        N  0.28544024  0.36749915  0.30344706    -0.27100
C644        C  0.30070050  0.37089545  0.31825109    -0.02300
C645        C  0.30170691  0.37666279  0.35304828     0.06300
C646        C  0.28633388  0.37657842  0.35752027     0.04400
H647        H  0.31014059  0.36891219  0.30483680     0.09500
H648        H  0.28235474  0.38050105  0.38104937     0.08300
N649        N  0.06321053  0.33648432  0.43990659    -0.26100
N650        N  0.08093300  0.34835071  0.44419264    -0.34000
C651        C  0.08473093  0.35058563  0.47887845     0.02200
C652        C  0.06868933  0.33949787  0.49762731     0.08300
C653        C  0.05524620  0.33086703  0.47205889    -0.04800
H654        H  0.09834609  0.35905523  0.48949039     0.08900
H655        H  0.04092932  0.32045706  0.47635475     0.10100
Cu656      Cu  0.10000936  0.35831071  0.40393733     0.44200
Cu657      Cu  0.05126593  0.32716897  0.39031496     0.42000
Cu658      Cu  0.08348656  0.34192278  0.31671941     0.43900
N659        N  0.11651323  0.36012180  0.36328042    -0.33500
N660        N  0.11036969  0.35382948  0.33106275    -0.27700
C661        C  0.12333195  0.35410150  0.31229389    -0.03800
C662        C  0.13833973  0.36073429  0.33386644     0.08400
C663        C  0.13351528  0.36453739  0.36596230     0.02200
H664        H  0.12154869  0.34893970  0.28550223     0.09800
H665        H  0.14114578  0.36870532  0.39036709     0.08900
N666        N  0.05543442  0.32698972  0.31068811    -0.34900
N667        N  0.04371319  0.32111978  0.33734349    -0.27100
C668        C  0.02671667  0.31120405  0.32431731    -0.02300
C669        C  0.02767994  0.31085127  0.28754382     0.06300
C670        C  0.04620545  0.32110901  0.28005629     0.04400
H671        H  0.01460263  0.30455568  0.34069794     0.09500
H672        H  0.05266337  0.32432794  0.25425592     0.08300
N673        N  0.34683627  0.12094829  0.65581400    -0.26100
N674        N  0.34166974  0.12005523  0.68907799    -0.34000
C675        C  0.33512783  0.13011369  0.69345582     0.02200
C676        C  0.33598545  0.13778884  0.66130621     0.08300
C677        C  0.34358412  0.13169071  0.63796393    -0.04800
H678        H  0.33035104  0.13186366  0.71854948     0.08900
H679        H  0.34632235  0.13461327  0.61000077     0.10100
Cu680      Cu  0.34319901  0.10493623  0.72726102     0.44200
Cu681      Cu  0.35800781  0.10709120  0.63814837     0.42000
Cu682      Cu  0.35974539  0.07830056  0.70612569     0.43900
N683        N  0.34479384  0.08922627  0.76386973    -0.33500
N684        N  0.35083857  0.07915723  0.75686100    -0.27700
C685        C  0.35158083  0.07200264  0.78746399    -0.03800
C686        C  0.34569846  0.07799068  0.81468328     0.08400
C687        C  0.34157096  0.08886032  0.79868949     0.02200
H688        H  0.35712772  0.06413190  0.79002427     0.09800
H689        H  0.33753588  0.09681300  0.81173836     0.08900
N690        N  0.36899374  0.08144047  0.65394784    -0.34900
N691        N  0.36851840  0.09165562  0.62967182    -0.27100
C692        C  0.37583826  0.09038359  0.59933194    -0.02300
C693        C  0.38121736  0.07887187  0.60466470     0.06300
C694        C  0.37658543  0.07349968  0.63966198     0.04400
H695        H  0.37734883  0.09755419  0.57529653     0.09500
H696        H  0.37831093  0.06421847  0.65377316     0.08300
N697        N  0.30589519  0.20546881  0.64297571    -0.26100
N698        N  0.31068577  0.20601688  0.60953853    -0.34000
C699        C  0.31609517  0.19502532  0.60459422     0.02200
C700        C  0.31491628  0.18705342  0.63652144     0.08300
C701        C  0.30823927  0.19392628  0.66036551    -0.04800
H702        H  0.32055772  0.19304883  0.57932868     0.08900
H703        H  0.30574281  0.19113809  0.68841229     0.10100
Cu704      Cu  0.31083349  0.22229205  0.57183348     0.44200
Cu705      Cu  0.29693355  0.22135019  0.66125963     0.42000
Cu706      Cu  0.29468000  0.24916997  0.59092089     0.43900
N707        N  0.31159547  0.23941871  0.53540082    -0.33500
N708        N  0.30530407  0.24933688  0.54134525    -0.27700
C709        C  0.30739397  0.25848641  0.51147343    -0.03800
C710        C  0.31563318  0.25415797  0.48590513     0.08400
C711        C  0.31797514  0.24199637  0.50217516     0.02200
H712        H  0.30331095  0.26760424  0.50864823     0.09800
H713        H  0.32344089  0.23504688  0.49041278     0.08900
N714        N  0.28679162  0.24763524  0.64379517    -0.34900
N715        N  0.28815363  0.23845222  0.66922938    -0.27100
C716        C  0.28280120  0.24180372  0.70015408    -0.02300
C717        C  0.27760377  0.25336815  0.69376718     0.06300
C718        C  0.28030221  0.25668989  0.65778242     0.04400
H719        H  0.28255170  0.23611331  0.72541322     0.09500
H720        H  0.27815766  0.26549316  0.64290509     0.08300
N721        N  0.33500432  0.07318612  0.02304681    -0.26100
N722        N  0.33859560  0.08936650  0.01663708    -0.34000
C723        C  0.34301964  0.09333758  0.98234283     0.02200
C724        C  0.34228568  0.07906082  0.96604111     0.08300
C725        C  0.33703602  0.06642259  0.99268151    -0.04800
H726        H  0.34596363  0.10554499  0.96997278     0.08900
H727        H  0.33476530  0.05327056  0.99023245     0.10100
Cu728      Cu  0.33670926  0.10553421  0.05329102     0.44200
Cu729      Cu  0.32658710  0.06091229  0.07253375     0.42000
Cu730      Cu  0.31989784  0.08662213  0.13876808     0.43900
N731        N  0.33320353  0.11919869  0.09333759    -0.33500
N732        N  0.32677612  0.11207861  0.12494344    -0.27700
C733        C  0.32567413  0.12387517  0.14500546    -0.03800
C734        C  0.33178322  0.13923281  0.12507638     0.08400
C735        C  0.33648138  0.13578475  0.09242449     0.02200
H736        H  0.32099081  0.12151618  0.17223921     0.09800
H737        H  0.34161698  0.14452909  0.06949107     0.08900
N738        N  0.31350287  0.06079473  0.14683434    -0.34900
N739        N  0.31610959  0.05150847  0.12321168    -0.30700
C740        C  0.31010958  0.03519978  0.13690334    -0.02300
C741        C  0.30330250  0.03408878  0.17077195     0.06300
C742        C  0.30573390  0.05064231  0.17600152     0.04400
H743        H  0.31070410  0.02494795  0.12307220     0.09500
H744        H  0.30169721  0.05490616  0.19890390     0.08300
N745        N  0.32986271  0.26597671  0.27768823    -0.26100
N746        N  0.32997748  0.25161318  0.28400450    -0.34000
C747        C  0.32801029  0.24833581  0.31890074     0.02200
C748        C  0.32640516  0.26108265  0.33558394     0.08300
C749        C  0.32754316  0.27206426  0.30873973    -0.04800
H750        H  0.32795856  0.23753441  0.33131108     0.08900
H751        H  0.32744126  0.28397953  0.31170495     0.10100
Cu752      Cu  0.33310347  0.23677308  0.24623793     0.44200
Cu753      Cu  0.33463237  0.27732481  0.22729339     0.42000
Cu754      Cu  0.34520138  0.25467497  0.15992935     0.43900
N755        N  0.33620571  0.22344616  0.20500642    -0.33500
N756        N  0.34116765  0.23032298  0.17286394    -0.27700
C757        C  0.34201500  0.21867530  0.15170818    -0.03800
C758        C  0.33715725  0.20364698  0.17154706     0.08400
C759        C  0.33354679  0.20713947  0.20522961     0.02200
H760        H  0.34540195  0.22076004  0.12377290     0.09800
H761        H  0.32935206  0.19851159  0.22822933     0.08900
N762        N  0.34683335  0.27826852  0.15162461    -0.34900
N763        N  0.34256553  0.28631233  0.17516471    -0.27100
C764        C  0.34572917  0.30150575  0.16059454    -0.02300
C765        C  0.35236563  0.30302862  0.12651421     0.06300
C766        C  0.35295602  0.28814927  0.12185678     0.04400
H767        H  0.34425556  0.31121005  0.17440055     0.09500
H768        H  0.35798833  0.28500197  0.09882701     0.08300
N769        N  0.72208507  0.05181993  0.26872782    -0.26100
N770        N  0.73897695  0.06587007  0.27487975    -0.34000
C771        C  0.74305476  0.06566843  0.30880640     0.02200
C772        C  0.72802916  0.05089445  0.32524958     0.08300
C773        C  0.71487047  0.04241385  0.29908292    -0.04800
H774        H  0.75573061  0.07618437  0.32116090     0.08900
H775        H  0.70101182  0.03057073  0.30203908     0.10100
Cu776      Cu  0.75538803  0.08645034  0.23939492     0.44200
Cu777      Cu  0.70985583  0.04722711  0.21943717     0.42000
Cu778      Cu  0.73627155  0.08538003  0.15714551     0.43900
N779        N  0.76913707  0.10723527  0.20306086    -0.33500
N780        N  0.76204858  0.10704195  0.17252603    -0.27700
C781        C  0.77425125  0.12233194  0.15474893    -0.03800
C782        C  0.78982130  0.13265557  0.17517145     0.08400
C783        C  0.78598940  0.12260824  0.20568882     0.02200
H784        H  0.77208928  0.12544024  0.12854078     0.09800
H785        H  0.79471856  0.12620790  0.22834543     0.08900
N786        N  0.71103761  0.06150327  0.14637730    -0.34900
N787        N  0.70167065  0.04756473  0.16814054    -0.27100
C788        C  0.68621715  0.03436896  0.15197290    -0.02300
C789        C  0.68572868  0.04028453  0.11842945     0.06300
C790        C  0.70174214  0.05760516  0.11610312     0.04400
H791        H  0.67617541  0.02140912  0.16391285     0.09500
H792        H  0.70625218  0.06700459  0.09435466     0.08300
N793        N  0.93307888  0.26768840  0.03586912    -0.26100
N794        N  0.91532476  0.25872574  0.03102656    -0.34000
C795        C  0.91217276  0.25951198  0.99658940     0.02200
C796        C  0.92866893  0.26926087  0.97885320     0.08300
C797        C  0.94162582  0.27412900  0.00445461    -0.04800
H798        H  0.89879619  0.25239176  0.98488688     0.08900
H799        H  0.95612815  0.28123390  0.00032642     0.10100
Cu800      Cu  0.89578889  0.24294830  0.06943655     0.44200
Cu801      Cu  0.94500962  0.26991460  0.08441883     0.42000
Cu802      Cu  0.91339540  0.24297603  0.15437943     0.43900
N803        N  0.87970825  0.22499217  0.10961894    -0.33500
N804        N  0.88634567  0.22502746  0.14065421    -0.27700
C805        C  0.87320952  0.21090070  0.15977033    -0.03800
C806        C  0.85746346  0.20134758  0.13981846     0.08400
C807        C  0.86209500  0.21077317  0.10817554     0.02200
H808        H  0.87517878  0.20762578  0.18598139     0.09800
H809        H  0.85361258  0.20701431  0.08504999     0.08900
N810        N  0.94116199  0.26070889  0.16194134    -0.34900
N811        N  0.95291613  0.27039547  0.13631237    -0.27100
C812        C  0.96979854  0.28038102  0.14997507    -0.02300
C813        C  0.96855774  0.27686738  0.18598473     0.06300
C814        C  0.95017144  0.26431352  0.19253092     0.04400
H815        H  0.98201088  0.28984385  0.13497629     0.09500
H816        H  0.94376777  0.25813041  0.21764899     0.08300
N817        N  0.93461793  0.27367346  0.76903545    -0.26100
N818        N  0.92382826  0.25586365  0.77358299    -0.34000
C819        C  0.92224361  0.25219276  0.80831980     0.02200
C820        C  0.93232471  0.26842960  0.82671836     0.08300
C821        C  0.93994256  0.28183622  0.80110853    -0.04800
H822        H  0.91376688  0.23869381  0.81944587     0.08900
H823        H  0.94859265  0.29639011  0.80546161     0.10100
Cu824      Cu  0.90984532  0.23705414  0.73356670     0.44200
Cu825      Cu  0.94102632  0.28566842  0.71911905     0.42000
Cu826      Cu  0.91476703  0.25374415  0.64648506     0.43900
N827        N  0.89442712  0.22056815  0.69163175    -0.33500
N828        N  0.89614676  0.22670063  0.65921567    -0.27700
C829        C  0.88335471  0.21307939  0.63852816    -0.03800
C830        C  0.87299586  0.19759673  0.65908207     0.08400
C831        C  0.88048527  0.20291488  0.69261202     0.02200
H832        H  0.88153586  0.21452009  0.61082177     0.09800
H833        H  0.87559031  0.19485856  0.71647586     0.08900
N834        N  0.93365828  0.28143413  0.64033466    -0.34900
N835        N  0.94346951  0.29306565  0.66606425    -0.27100
C836        C  0.95400876  0.30989924  0.65232697    -0.02300
C837        C  0.95056002  0.30883413  0.61621184     0.06300
C838        C  0.93751799  0.29050669  0.60984890     0.04400
H839        H  0.96331781  0.32197468  0.66776408     0.09500
H840        H  0.93066608  0.28415659  0.58517171     0.08300
N841        N  0.72890838  0.05325431  0.53489124    -0.26100
N842        N  0.74387690  0.06904607  0.52563313    -0.34000
C843        C  0.74520881  0.06997748  0.49021390     0.02200
C844        C  0.73037086  0.05409049  0.47622518     0.08300
C845        C  0.72017631  0.04376304  0.50522394    -0.04800
H846        H  0.75649541  0.08121221  0.47566977     0.08900
H847        H  0.70794325  0.03003308  0.50481884     0.10100
Cu848      Cu  0.76313130  0.08837141  0.56023671     0.44200
Cu849      Cu  0.72291636  0.04474347  0.58746796     0.42000
Cu850      Cu  0.75886452  0.07595146  0.65039079     0.43900
N851        N  0.78186708  0.10547081  0.59797379    -0.33500
N852        N  0.78039881  0.10085196  0.63153650    -0.27700
C853        C  0.79484637  0.11447817  0.64933537    -0.03800
C854        C  0.80593440  0.12837678  0.62572555     0.08400
C855        C  0.79723125  0.12216923  0.59339479     0.02200
H856        H  0.79701746  0.11429533  0.67740376     0.09800
H857        H  0.80188522  0.12906680  0.56820650     0.08900
N858        N  0.73674655  0.04991825  0.66254550    -0.34900
N859        N  0.72343066  0.03876696  0.64048140    -0.27100
C860        C  0.71198783  0.02271002  0.65672978    -0.02300
C861        C  0.71857213  0.02380571  0.69032624     0.06300
C862        C  0.73426294  0.04121236  0.69304279     0.04400
H863        H  0.70042378  0.01076752  0.64421282     0.09500
H864        H  0.74357407  0.04694158  0.71512548     0.08300
C865        C  0.84421805  0.17862353  0.62394170     0.24800
C866        C  0.85632588  0.17976401  0.64893597    -0.23300
C867        C  0.85193131  0.16375571  0.66544996     0.19700
C868        C  0.83560312  0.14706037  0.65780859     0.24700
C869        C  0.82338341  0.14598337  0.63327780    -0.23300
C870        C  0.82793904  0.16189795  0.61615218     0.19600
F871        F  0.81626378  0.16145628  0.59300220    -0.13200
F872        F  0.84763664  0.19378040  0.60819182    -0.15600
F873        F  0.83197572  0.13187990  0.67385782    -0.15600
F874        F  0.86358857  0.16415942  0.68859025    -0.13200
C875        C  0.93800211  0.26174308  0.92281785     0.24800
C876        C  0.93129551  0.27068372  0.94010880    -0.23300
C877        C  0.92595136  0.27985087  0.91995572     0.19700
C878        C  0.92721985  0.27999152  0.88288660     0.24700
C879        C  0.93331537  0.27048518  0.86559008    -0.23300
C880        C  0.93875460  0.26142359  0.88580306     0.19600
F881        F  0.94455784  0.25204236  0.86960072    -0.13200
F882        F  0.94293573  0.25253094  0.94175360    -0.15600
F883        F  0.92154981  0.28852667  0.86383503    -0.15600
F884        F  0.91929597  0.28844766  0.93619394    -0.13200
C885        C  0.74146438  0.05013290  0.38177093     0.24800
C886        C  0.72643702  0.04727651  0.36373279    -0.23300
C887        C  0.71129581  0.04367748  0.38345081     0.19700
C888        C  0.71193521  0.04457059  0.42063909     0.24700
C889        C  0.72769845  0.04908425  0.43831427    -0.23300
C890        C  0.74212294  0.05112044  0.41867795     0.19600
F891        F  0.75721252  0.05478258  0.43528081    -0.13200
F892        F  0.75589341  0.05271998  0.36353237    -0.15600
F893        F  0.69785735  0.04259996  0.43913703    -0.15600
F894        F  0.69659452  0.04090602  0.36682491    -0.13200
C895        C  0.80701391  0.16326543  0.14578051     0.24800
C896        C  0.80707278  0.15028148  0.16606663    -0.23300
C897        C  0.82383746  0.15427759  0.17761389     0.19700
C898        C  0.84013091  0.17083837  0.16917028     0.24700
C899        C  0.84009518  0.18385499  0.14897158    -0.23300
C900        C  0.82335493  0.17987417  0.13732100     0.19600
F901        F  0.82272134  0.19227025  0.11859938    -0.13200
F902        F  0.79110883  0.16016526  0.13500360    -0.15600
F903        F  0.85599636  0.17376698  0.17970051    -0.15600
F904        F  0.82461058  0.14188973  0.19603473    -0.13200
C905        C  0.31947681  0.15426828  0.15836718     0.24800
C906        C  0.33301833  0.15572894  0.13639227    -0.23300
C907        C  0.34782344  0.17308509  0.12569932     0.19700
C908        C  0.34911935  0.18866949  0.13700203     0.24700
C909        C  0.33567225  0.18718614  0.15924016    -0.23300
C910        C  0.32081772  0.16985344  0.16975067     0.19600
F911        F  0.30728681  0.16795028  0.19019233    -0.13200
F912        F  0.30463085  0.13771446  0.16800506    -0.15600
F913        F  0.36389102  0.20526094  0.12730418    -0.15600
F914        F  0.36141764  0.17504584  0.10540283    -0.13200
C915        C  0.33801353  0.26342630  0.39613490     0.24800
C916        C  0.32523135  0.26289353  0.37423845    -0.23300
C917        C  0.31044833  0.26201844  0.38972075     0.19700
C918        C  0.30783022  0.26040765  0.42662778     0.24700
C919        C  0.32002013  0.25969488  0.44832143    -0.23300
C920        C  0.33554078  0.26202225  0.43279907     0.19600
F921        F  0.34811810  0.26241529  0.45310282    -0.13200
F922        F  0.35268018  0.26476796  0.38184243    -0.15600
F923        F  0.29267039  0.25809420  0.44072713    -0.15600
F924        F  0.29780056  0.26124120  0.36897506    -0.13200
C925        C  0.31125088  0.16074235  0.66879033     0.24800
C926        C  0.32027937  0.17442827  0.64306766    -0.23300
C927        C  0.33433674  0.17572835  0.62296153     0.19700
C928        C  0.33922258  0.16371055  0.62846965     0.24700
C929        C  0.33027149  0.15008746  0.65432339    -0.23300
C930        C  0.31613410  0.14870157  0.67429028     0.19600
F931        F  0.30657636  0.13533847  0.69856523    -0.13200
F932        F  0.29726701  0.15858495  0.68797894    -0.15600
F933        F  0.35323223  0.16593105  0.60926954    -0.15600
F934        F  0.34392741  0.18907581  0.59867500    -0.13200
C935        C  0.33458260  0.06112365  0.90897105     0.24800
C936        C  0.34533574  0.07770427  0.92776680    -0.23300
C937        C  0.35806217  0.09361116  0.90895675     0.19700
C938        C  0.35893195  0.09329243  0.87209325     0.24700
C939        C  0.34732297  0.07706004  0.85321189    -0.23300
C940        C  0.33560490  0.06082702  0.87181188     0.19600
F941        F  0.32422954  0.04499377  0.85393796    -0.13200
F942        F  0.32213849  0.04549650  0.92615455    -0.15600
F943        F  0.37065548  0.10906901  0.85459443    -0.15600
F944        F  0.36940920  0.10966520  0.92617759    -0.13200
C945        C  0.01459450  0.29653855  0.22772943     0.24800
C946        C  0.01234523  0.30169794  0.26179158    -0.23300
C947        C  0.99530395  0.29815773  0.27073929     0.19700
C948        C  0.98104775  0.28985494  0.24632169     0.24700
C949        C  0.98351924  0.28516741  0.21213472    -0.23300
C950        C  0.00041020  0.28854134  0.20314540     0.19600
F951        F  0.00305303  0.28356783  0.17083366    -0.13200
F952        F  0.03033819  0.29871174  0.21826520    -0.15600
F953        F  0.96500467  0.28705921  0.25579152    -0.15600
F954        F  0.99247343  0.30327322  0.30267057    -0.13200
C955        C  0.18698428  0.37423402  0.33362995     0.24800
C956        C  0.18554838  0.36071788  0.31154594    -0.23300
C957        C  0.16839379  0.34703144  0.29775342     0.19700
C958        C  0.15316043  0.34708094  0.30502944     0.24700
C959        C  0.15463116  0.36081496  0.32633323    -0.23300
C960        C  0.17166440  0.37426399  0.34098759     0.19600
F961        F  0.17363311  0.38776480  0.36162829    -0.13200
F962        F  0.20330478  0.38778885  0.34716531    -0.15600
F963        F  0.13680754  0.33319590  0.29221724    -0.15600
F964        F  0.16613896  0.33314180  0.27805162    -0.13200
C965        C  0.05118644  0.33103144  0.59250825     0.24800
C966        C  0.06492074  0.33121221  0.61041533    -0.23300
C967        C  0.07943024  0.33337911  0.59060871     0.19700
C968        C  0.08037779  0.33569382  0.55399100     0.24700
C969        C  0.06692612  0.33601063  0.53619006    -0.23300
C970        C  0.05214204  0.33333647  0.55568102     0.19600
F971        F  0.03893272  0.33356500  0.53930095    -0.13200
F972        F  0.03676627  0.32851593  0.61060949    -0.15600
F973        F  0.09445211  0.33741902  0.53593551    -0.15600
F974        F  0.09321377  0.33403096  0.60664793    -0.13200
C975        C  0.27502020  0.27788309  0.77407148     0.24800
C976        C  0.25959324  0.27781184  0.76656441    -0.23300
C977        C  0.25000534  0.26907482  0.73498536     0.19700
C978        C  0.25584574  0.26111916  0.71163022     0.24700
C979        C  0.27108499  0.26115076  0.71945646    -0.23300
C980        C  0.28047098  0.26940937  0.75109744     0.19600
F981        F  0.29547770  0.27000060  0.75908745    -0.13200
F982        F  0.28536449  0.28666530  0.80300250    -0.15600
F983        F  0.24625682  0.25293834  0.68156703    -0.15600
F984        F  0.23467218  0.26776219  0.72665709    -0.13200
C985        C  0.23422927  0.31138459  0.06208121     0.24800
C986        C  0.24931602  0.32119989  0.03927467    -0.23300
C987        C  0.26647005  0.33434901  0.05368846     0.19700
C988        C  0.26817460  0.33862027  0.09006954     0.24700
C989        C  0.25272595  0.32971573  0.11241943    -0.23300
C990        C  0.23590655  0.31553321  0.09823362     0.19600
F991        F  0.22091115  0.30588465  0.11927076    -0.13200
F992        F  0.21765476  0.29806348  0.04904872    -0.15600
F993        F  0.28461672  0.35237670  0.10278536    -0.15600
F994        F  0.28126725  0.34402072  0.03218291    -0.13200
C995        C  0.14209421  0.31442229  0.79980399     0.24800
C996        C  0.14241388  0.32909573  0.81486944    -0.23300
C997        C  0.15714764  0.34143733  0.83692581     0.19700
C998        C  0.17083120  0.33896451  0.84426977     0.24700
C999        C  0.17041700  0.32433086  0.82922286    -0.23300
C1000       C  0.15601963  0.31223319  0.80657361     0.19600
F1001       F  0.15494464  0.29774086  0.79213070    -0.13200
F1002       F  0.12799517  0.30166551  0.77944803    -0.15600
F1003       F  0.18479296  0.35123530  0.86551333    -0.15600
F1004       F  0.15869020  0.35623911  0.85086572    -0.13200
C1005       C  0.04787945  0.38878694  0.86182180     0.24800
C1006       C  0.05680317  0.38129559  0.87526375    -0.23300
C1007       C  0.05911835  0.38189529  0.91230302     0.19700
C1008       C  0.05291436  0.38978722  0.93493213     0.24700
C1009       C  0.04380350  0.39704663  0.92151271    -0.23300
C1010       C  0.04134629  0.39634337  0.88456192     0.19600
F1011       F  0.03220770  0.40258549  0.87012222    -0.13200
F1012       F  0.04562232  0.38917781  0.82647112    -0.15600
F1013       F  0.05623962  0.39056109  0.97010575    -0.15600
F1014       F  0.06707398  0.37450910  0.92718773    -0.13200
C1015       C  0.98680728  0.50057635  0.94007332     0.24800
C1016       C  0.98786202  0.51229025  0.96677097    -0.23300
C1017       C  0.99417246  0.51192343  0.00041838     0.19700
C1018       C  0.99905744  0.50001395  0.00736672     0.24700
C1019       C  0.99766184  0.48804342  0.98090626    -0.23300
C1020       C  0.99168848  0.48864001  0.94705029     0.19600
F1021       F  0.98975557  0.47709070  0.92103584    -0.13200
F1022       F  0.98028788  0.50004216  0.90750644    -0.15600
F1023       F  0.00554437  0.50052018  0.03996386    -0.15600
F1024       F  0.99606300  0.52341784  0.02652327    -0.13200
C1025       C  0.94487576  0.56776292  0.70849149     0.24800
C1026       C  0.96138911  0.57889725  0.68990998    -0.23300
C1027       C  0.97766726  0.58976721  0.70893063     0.19700
C1028       C  0.97752217  0.58878222  0.74591134     0.24700
C1029       C  0.96106775  0.57733339  0.76440588    -0.23300
C1030       C  0.94468406  0.56718589  0.74554546     0.19600
F1031       F  0.92864636  0.55586997  0.76284136    -0.13200
F1032       F  0.92897791  0.55714553  0.69064753    -0.15600
F1033       F  0.99349936  0.59872676  0.76370239    -0.15600
F1034       F  0.99382802  0.60040579  0.69163177    -0.13200
C1035       C  0.96863339  0.35501482  0.57632618     0.24800
C1036       C  0.96777830  0.35129203  0.53973124    -0.23300
C1037       C  0.96265427  0.33394317  0.52876744     0.19700
C1038       C  0.95788709  0.32048403  0.55366514     0.24700
C1039       C  0.95773127  0.32386196  0.59022979    -0.23300
C1040       C  0.96355995  0.34145600  0.60124916     0.19600
F1041       F  0.96369404  0.34549595  0.63606122    -0.13200
F1042       F  0.97439879  0.37182739  0.58822597    -0.15600
F1043       F  0.95340653  0.30410248  0.54168265    -0.15600
F1044       F  0.96143589  0.32961085  0.49384380    -0.13200
C1045       C  0.01084382  0.40710352  0.21064465     0.24800
C1046       C  0.99896098  0.40921842  0.19093697    -0.23300
C1047       C  0.98521732  0.40929889  0.20911925     0.19700
C1048       C  0.98407610  0.40841309  0.24602388     0.24700
C1049       C  0.99642152  0.40713552  0.26570875    -0.23300
C1050       C  0.00949026  0.40595921  0.24777915     0.19600
F1051       F  0.02166257  0.40487455  0.26630814    -0.13200
F1052       F  0.02446310  0.40725791  0.19431930    -0.15600
F1053       F  0.97090264  0.40894738  0.26266501    -0.15600
F1054       F  0.97280713  0.41028013  0.19127277    -0.13200
C1055       C  0.98267793  0.50436296  0.46826262     0.24800
C1056       C  0.96702775  0.50064461  0.48593264    -0.23300
C1057       C  0.95401902  0.48288443  0.49800805     0.19700
C1058       C  0.95636836  0.46899175  0.49159219     0.24700
C1059       C  0.97179384  0.47263712  0.47303875    -0.23300
C1060       C  0.98505000  0.49052532  0.46195769     0.19600
F1061       F  0.00059853  0.49477614  0.44573924    -0.13200
F1062       F  0.99601922  0.52152898  0.45800913    -0.15600
F1063       F  0.94318143  0.45185561  0.50226274    -0.15600
F1064       F  0.93868267  0.47880018  0.51490759    -0.13200
C1065       C  0.02376485  0.64979255  0.36152054     0.24800
C1066       C  0.02753837  0.66680417  0.37073875    -0.23300
C1067       C  0.02216464  0.66907208  0.40432067     0.19700
C1068       C  0.01279631  0.65447677  0.42795566     0.24700
C1069       C  0.00904419  0.63731696  0.41897473    -0.23300
C1070       C  0.01489954  0.63533914  0.38536984     0.19600
F1071       F  0.01267254  0.61963911  0.37547196    -0.13200
F1072       F  0.02928448  0.64726994  0.32972600    -0.15600
F1073       F  0.00708771  0.65722649  0.45920892    -0.15600
F1074       F  0.02545070  0.68530820  0.41391401    -0.13200
C1075       C  0.28799599  0.00693064  0.25619439     0.24800
C1076       C  0.27888057  0.98887705  0.24361592    -0.23300
C1077       C  0.27770629  0.98588874  0.20666565     0.19700
C1078       C  0.28547882  0.00049347  0.18308752     0.24700
C1079       C  0.29487150  0.01852149  0.19574978    -0.23300
C1080       C  0.29600009  0.02152152  0.23263392     0.19600
F1081       F  0.30519817  0.03864579  0.24623450    -0.13200
F1082       F  0.28889650  0.01063263  0.29138205    -0.15600
F1083       F  0.28337786  0.99684450  0.14778278    -0.15600
F1084       F  0.26934134  0.96884944  0.19303638    -0.13200
C1085       C  0.16668377  0.83049745  0.33989553     0.24800
C1086       C  0.17147176  0.84496301  0.31714864    -0.23300
C1087       C  0.16078386  0.84122548  0.28701200     0.19700
C1088       C  0.14574301  0.82353877  0.27971945     0.24700
C1089       C  0.14097425  0.80905404  0.30232157    -0.23300
C1090       C  0.15160152  0.81276176  0.33257573     0.19600
F1091       F  0.14779878  0.79915285  0.35456502    -0.13200
F1092       F  0.17688534  0.83333568  0.36875669    -0.15600
F1093       F  0.13548221  0.82079374  0.25102917    -0.15600
F1094       F  0.16441414  0.85479457  0.26510994    -0.13200
C1095       C  0.24604448  0.93675249  0.54256720     0.24800
C1096       C  0.26015280  0.94095055  0.51900224    -0.23300
C1097       C  0.27694117  0.94594536  0.53263451     0.19700
C1098       C  0.27904081  0.94530087  0.56928081     0.24700
C1099       C  0.26437362  0.93970414  0.59254385    -0.23300
C1100       C  0.24816782  0.93626136  0.57892740     0.19600
F1101       F  0.23406864  0.93180104  0.60080074    -0.13200
F1102       F  0.22992320  0.93258653  0.53026470    -0.15600
F1103       F  0.29482929  0.94867343  0.58159537    -0.15600
F1104       F  0.29075529  0.94996124  0.51038286    -0.13200
C1105       C  0.15601400  0.82674683  0.83533103     0.24800
C1106       C  0.14628649  0.81182129  0.81193529    -0.23300
C1107       C  0.15419875  0.81246643  0.77904495     0.19700
C1108       C  0.17153925  0.82759944  0.76997625     0.24700
C1109       C  0.18135103  0.84238558  0.79362558    -0.23300
C1110       C  0.17337739  0.84183771  0.82630599     0.19600
F1111       F  0.18210504  0.85618691  0.84910628    -0.13200
F1112       F  0.14852642  0.82704621  0.86656512    -0.15600
F1113       F  0.17894999  0.82747269  0.73848827    -0.15600
F1114       F  0.14547824  0.79819595  0.75606480    -0.13200
C1115       C  0.04217433  0.71187443  0.03877270     0.24800
C1116       C  0.05793840  0.71765986  0.01872790    -0.23300
C1117       C  0.07325458  0.72076169  0.03603781     0.19700
C1118       C  0.07341206  0.71967055  0.07282387     0.24700
C1119       C  0.05820035  0.71523489  0.09313386    -0.23300
C1120       C  0.04230290  0.71062696  0.07583826     0.19600
F1121       F  0.02744401  0.70634562  0.09494458    -0.13200
F1122       F  0.02717430  0.70880355  0.02291102    -0.15600
F1123       F  0.08869685  0.72347122  0.08879286    -0.15600
F1124       F  0.08832188  0.72529822  0.01737123    -0.13200
C1125       C  0.69377517  0.99828884  0.72710580     0.24800
C1126       C  0.71200355  0.00885600  0.71567682    -0.23300
C1127       C  0.72404582  0.00505097  0.72857276     0.19700
C1128       C  0.71791959  0.99074466  0.75213790     0.24700
C1129       C  0.69972377  0.98022865  0.76389921    -0.23300
C1130       C  0.68772688  0.98422911  0.75146478     0.19600
F1131       F  0.67004023  0.97418649  0.76205296    -0.13200
F1132       F  0.68193327  0.00180155  0.71514002    -0.15600
F1133       F  0.72989937  0.98738780  0.76397389    -0.15600
F1134       F  0.74167237  0.01488909  0.71757133    -0.13200
C1135       C  0.69389937  0.83835085  0.78777085     0.24800
C1136       C  0.69888357  0.83092034  0.81376923    -0.23300
C1137       C  0.70174208  0.83769976  0.84869379     0.19700
C1138       C  0.69943613  0.85141322  0.85751372     0.24700
C1139       C  0.69440799  0.85876138  0.83153262    -0.23300
C1140       C  0.69178180  0.85218191  0.79654974     0.19600
F1141       F  0.68620694  0.85844777  0.77113003    -0.13200
F1142       F  0.69008471  0.83161763  0.75418819    -0.15600
F1143       F  0.70241273  0.85770907  0.89141200    -0.15600
F1144       F  0.70698386  0.83121021  0.87431368    -0.13200
C1145       C  0.61954620  0.88647618  0.02521262     0.24800
C1146       C  0.63306555  0.90409035  0.01336786    -0.23300
C1147       C  0.63970497  0.91889959  0.03680442     0.19700
C1148       C  0.63374836  0.91597464  0.07219568     0.24700
C1149       C  0.62103838  0.89820197  0.08451504    -0.23300
C1150       C  0.61356598  0.88356614  0.06038120     0.19600
F1151       F  0.60077290  0.86630655  0.07111332    -0.13200
F1152       F  0.61240794  0.87197045  0.00287221    -0.15600
F1153       F  0.64152217  0.93034046  0.09497108    -0.15600
F1154       F  0.65303043  0.93601712  0.02629313    -0.13200
C1155       C  0.67214289  0.75960435  0.54823268     0.24800
C1156       C  0.67037194  0.74581406  0.52651732    -0.23300
C1157       C  0.67129193  0.73225511  0.54236624     0.19700
C1158       C  0.67444842  0.73282876  0.57881383     0.24700
C1159       C  0.67665440  0.74689780  0.60011830    -0.23300
C1160       C  0.67506700  0.76002320  0.58451802     0.19600
F1161       F  0.67610449  0.77326594  0.60444917    -0.13200
F1162       F  0.67174111  0.77321304  0.53445218    -0.15600
F1163       F  0.67590622  0.71994262  0.59300606    -0.15600
F1164       F  0.66899359  0.71832125  0.52276259    -0.13200
C1165       C  0.64780694  0.81852361  0.33111569     0.24800
C1166       C  0.64228246  0.80339020  0.30925088    -0.23300
C1167       C  0.63179421  0.80030420  0.27918802     0.19700
C1168       C  0.62659589  0.81190051  0.27158671     0.24700
C1169       C  0.63198587  0.82698521  0.29370220    -0.23300
C1170       C  0.64277541  0.83020256  0.32339737     0.19600
F1171       F  0.64902106  0.84499825  0.34447709    -0.13200
F1172       F  0.65858627  0.82237731  0.35956478    -0.15600
F1173       F  0.61576691  0.80793964  0.24317864    -0.15600
F1174       F  0.62595386  0.78565835  0.25787790    -0.13200
C1175       C  0.97351491  0.69531788  0.73460066     0.24800
C1176       C  0.97652159  0.69537943  0.69784632    -0.23300
C1177       C  0.99372335  0.70045488  0.68579578     0.19700
C1178       C  0.00763332  0.70559313  0.70985552     0.24700
C1179       C  0.00472481  0.70588006  0.74653887    -0.23300
C1180       C  0.98747364  0.70060413  0.75862482     0.19600
F1181       F  0.98420767  0.70118176  0.79365627    -0.13200
F1182       F  0.95698122  0.68992868  0.74756753    -0.15600
F1183       F  0.02393734  0.71016166  0.69710070    -0.15600
F1184       F  0.99737727  0.70105971  0.65062739    -0.13200
C1185       C  0.82855899  0.68943595  0.61914004     0.24800
C1186       C  0.82183086  0.68633785  0.65409314    -0.23300
C1187       C  0.82976000  0.68190359  0.68006281     0.19700
C1188       C  0.84409442  0.68059345  0.67121612     0.24700
C1189       C  0.85062641  0.68347323  0.63622282    -0.23300
C1190       C  0.84276162  0.68790959  0.61025338     0.19600
F1191       F  0.84913810  0.69122403  0.57639915    -0.13200
F1192       F  0.82175468  0.69443683  0.59371726    -0.15600
F1193       F  0.85104741  0.67571693  0.69658198    -0.15600
F1194       F  0.82320867  0.67810553  0.71377822    -0.13200
C1195       C  0.90619167  0.59609458  0.05799590     0.24800
C1196       C  0.91463877  0.60277798  0.09127246    -0.23300
C1197       C  0.92935540  0.60175991  0.09921536     0.19700
C1198       C  0.93525717  0.59422297  0.07493340     0.24700
C1199       C  0.92690859  0.58776732  0.04169536    -0.23300
C1200       C  0.91232653  0.58884482  0.03354674     0.19600
F1201       F  0.90351136  0.58233708  0.00219402    -0.13200
F1202       F  0.89158986  0.59600742  0.04907995    -0.15600
F1203       F  0.94965695  0.59389424  0.08364666    -0.15600
F1204       F  0.93856996  0.60851218  0.13008146    -0.13200
C1205       C  0.88575325  0.62161448  0.43081654     0.24800
C1206       C  0.90316681  0.63551263  0.44310500    -0.23300
C1207       C  0.91775052  0.64452700  0.41882241     0.19700
C1208       C  0.91461741  0.64067639  0.38250776     0.24700
C1209       C  0.89687969  0.62785916  0.37016212    -0.23300
C1210       C  0.88261936  0.61792498  0.39466407     0.19600
F1211       F  0.86548706  0.60497645  0.38347407    -0.13200
F1212       F  0.87157765  0.61199242  0.45377685    -0.15600
F1213       F  0.92860591  0.65058189  0.35931134    -0.15600
F1214       F  0.93468898  0.65811929  0.42975832    -0.13200
C1215       C  0.70402977  0.71284198  0.20049820     0.24800
C1216       C  0.71931038  0.71358631  0.21211175    -0.23300
C1217       C  0.72596858  0.72037833  0.24642478     0.19700
C1218       C  0.71766669  0.72633848  0.26831312     0.24700
C1219       C  0.70261842  0.72584146  0.25635999    -0.23300
C1220       C  0.69591579  0.71903172  0.22223015     0.19600
F1221       F  0.68104895  0.71773426  0.21019365    -0.13200
F1222       F  0.69643438  0.70559547  0.16846419    -0.15600
F1223       F  0.72481852  0.73318731  0.30083300    -0.15600
F1224       F  0.74089172  0.72186132  0.25864562    -0.13200
C1225       C  0.81737355  0.66999498  0.18638712     0.24800
C1226       C  0.80796381  0.66532513  0.15410656    -0.23300
C1227       C  0.80921359  0.65393425  0.13013454     0.19700
C1228       C  0.81992218  0.64772741  0.13780217     0.24700
C1229       C  0.82959930  0.65262898  0.16973273    -0.23300
C1230       C  0.82808848  0.66373234  0.19411755     0.19600
F1231       F  0.83750226  0.66912724  0.22494233    -0.13200
F1232       F  0.81679482  0.68118964  0.20995711    -0.15600
F1233       F  0.82032769  0.63641257  0.11429178    -0.15600
F1234       F  0.79962967  0.64829194  0.09951544    -0.13200
C1235       C  0.73596933  0.68891433  0.92202098     0.24800
C1236       C  0.75257987  0.69906692  0.94020648    -0.23300
C1237       C  0.76865952  0.71123492  0.92137703     0.19700
C1238       C  0.76829937  0.71277036  0.88473404     0.24700
C1239       C  0.75190261  0.70168271  0.86591625    -0.23300
C1240       C  0.73562393  0.69009135  0.88505838     0.19600
F1241       F  0.71955694  0.67907231  0.86800845    -0.13200
F1242       F  0.72024524  0.67701784  0.93975677    -0.15600
F1243       F  0.78411238  0.72506151  0.86765004    -0.15600
F1244       F  0.78479142  0.72168962  0.93853793    -0.13200
C1245       C  0.38620337  0.34289159  0.06939943     0.24800
C1246       C  0.37525744  0.34745382  0.05360506    -0.23300
C1247       C  0.35661166  0.33735424  0.06240182     0.19700
C1248       C  0.34915577  0.32312645  0.08689711     0.24700
C1249       C  0.36014370  0.31856695  0.10227094    -0.23300
C1250       C  0.37866646  0.32848494  0.09322775     0.19600
F1251       F  0.38952114  0.32427618  0.10777351    -0.13200
F1252       F  0.40413136  0.35201196  0.06096928    -0.15600
F1253       F  0.33114357  0.31350610  0.09492520    -0.15600
F1254       F  0.34569619  0.34147956  0.04786803    -0.13200
C1255       C  0.64541614  0.67541228  0.86919480     0.24800
C1256       C  0.64626667  0.69141625  0.87444618    -0.23300
C1257       C  0.63869066  0.69327494  0.90568528     0.19700
C1258       C  0.63084125  0.67968381  0.93134205     0.24700
C1259       C  0.63010430  0.66378800  0.92618888    -0.23300
C1260       C  0.63729873  0.66167590  0.89475943     0.19600
F1261       F  0.63702057  0.64657126  0.88932776    -0.13200
F1262       F  0.65298121  0.67328288  0.83994754    -0.15600
F1263       F  0.62336292  0.68181834  0.96074817    -0.15600
F1264       F  0.63831807  0.70800231  0.91108561    -0.13200
C1265       C  0.49480354  0.49295285  0.01929270     0.24800
C1266       C  0.48746379  0.48858938  0.98491153    -0.23300
C1267       C  0.49682644  0.50168337  0.95806882     0.19700
C1268       C  0.51233994  0.51900834  0.96584974     0.24700
C1269       C  0.51925812  0.52361089  0.00052438    -0.23300
C1270       C  0.51060540  0.51013909  0.02686441     0.19600
F1271       F  0.51740924  0.51347026  0.06015739    -0.13200
F1272       F  0.48642524  0.48090524  0.04617258    -0.15600
F1273       F  0.52008360  0.53141307  0.93943674    -0.15600
F1274       F  0.49110282  0.49782595  0.92396980    -0.13200
C1275       C  0.67733623  0.65395845  0.53624083     0.24800
C1276       C  0.65933874  0.64435600  0.54922804    -0.23300
C1277       C  0.65656992  0.64393706  0.58617904     0.19700
C1278       C  0.67130941  0.65222053  0.60947471     0.24700
C1279       C  0.68925922  0.66139335  0.59647542    -0.23300
C1280       C  0.69207286  0.66252810  0.55950958     0.19600
F1281       F  0.70914507  0.67205824  0.54558386    -0.13200
F1282       F  0.68083154  0.65461969  0.50099707    -0.15600
F1283       F  0.66782178  0.65063134  0.64482502    -0.15600
F1284       F  0.63958881  0.63564720  0.60008747    -0.13200
C1285       C  0.58243479  0.62109515  0.26498961     0.24800
C1286       C  0.59762980  0.62396305  0.28253212    -0.23300
C1287       C  0.61262878  0.62765209  0.26205081     0.19700
C1288       C  0.61188385  0.62730028  0.22487894     0.24700
C1289       C  0.59609147  0.62304331  0.20771220    -0.23300
C1290       C  0.58158524  0.62037772  0.22806202     0.19600
F1291       F  0.56641223  0.61685732  0.21209198    -0.13200
F1292       F  0.56822141  0.61880063  0.28354097    -0.15600
F1293       F  0.62605975  0.62983392  0.20575806    -0.15600
F1294       F  0.62753031  0.63043061  0.27775460    -0.13200
C1295       C  0.34763760  0.39627379  0.39644264     0.24800
C1296       C  0.34294689  0.39366756  0.43278767    -0.23300
C1297       C  0.32444532  0.38437147  0.44222145     0.19700
C1298       C  0.31112960  0.37846265  0.41627292     0.24700
C1299       C  0.31587687  0.38175600  0.38009678    -0.23300
C1300       C  0.33427528  0.39042257  0.37043480     0.19600
F1301       F  0.33951501  0.39392338  0.33590771    -0.13200
F1302       F  0.36518815  0.40449241  0.38589050    -0.15600
F1303       F  0.29348174  0.36938557  0.42678604    -0.15600
F1304       F  0.31914043  0.38161148  0.47671807    -0.13200
C1305       C  0.38665348  0.42661944  0.73986108     0.24800
C1306       C  0.38348997  0.41251625  0.71736841    -0.23300
C1307       C  0.37923789  0.39626858  0.73240502     0.19700
C1308       C  0.37961351  0.39477496  0.76940402     0.24700
C1309       C  0.38414486  0.40950512  0.79173704    -0.23300
C1310       C  0.38686348  0.42509974  0.77654433     0.19600
F1311       F  0.39019261  0.43917762  0.79720677    -0.13200
F1312       F  0.39006122  0.44219469  0.72619431    -0.15600
F1313       F  0.37690814  0.37950795  0.78303108    -0.15600
F1314       F  0.37614278  0.38243185  0.71127750    -0.13200
C1315       C  0.47957181  0.52244421  0.49799287     0.24800
C1316       C  0.47772198  0.50930508  0.52089852    -0.23300
C1317       C  0.49340826  0.51187753  0.53516813     0.19700
C1318       C  0.51069775  0.52702598  0.52572606     0.24700
C1319       C  0.51263583  0.54008539  0.50223919    -0.23300
C1320       C  0.49682967  0.53775700  0.48897205     0.19600
F1321       F  0.49799301  0.55043048  0.46768394    -0.13200
F1322       F  0.46462070  0.52063167  0.48484659    -0.15600
F1323       F  0.52549541  0.52836450  0.53828925    -0.15600
F1324       F  0.49205623  0.49924822  0.55691421    -0.13200
C1325       C  0.34068469  0.95886745  0.85281086     0.24800
C1326       C  0.32251472  0.95112636  0.86298393    -0.23300
C1327       C  0.31831283  0.94976735  0.89943797     0.19700
C1328       C  0.33170388  0.95520715  0.92499286     0.24700
C1329       C  0.34977241  0.96244161  0.91486964    -0.23300
C1330       C  0.35414182  0.96450312  0.87840571     0.19600
F1331       F  0.37149489  0.97206591  0.86727005    -0.13200
F1332       F  0.34542242  0.96038792  0.81807369    -0.15600
F1333       F  0.32668674  0.95265000  0.95966222    -0.15600
F1334       F  0.30118105  0.94320932  0.91062692    -0.13200
C1335       C  0.66116889  0.02725365  0.02994014     0.24800
C1336       C  0.64289776  0.01462366  0.04010785    -0.23300
C1337       C  0.63898588  0.00968445  0.07608224     0.19700
C1338       C  0.65283649  0.01774114  0.10138377     0.24700
C1339       C  0.67106523  0.03076219  0.09136195    -0.23300
C1340       C  0.67506011  0.03505967  0.05512894     0.19600
F1341       F  0.69247521  0.04675967  0.04371103    -0.13200
F1342       F  0.66568413  0.03265724  0.99575841    -0.15600
F1343       F  0.64815597  0.01314567  0.13586213    -0.15600
F1344       F  0.62171978  0.99690676  0.08702378    -0.13200
C1345       C  0.49232568  0.98770874  0.00554851     0.24800
C1346       C  0.47546627  0.97557681  0.98898170    -0.23300
C1347       C  0.47370902  0.96257921  0.96495451     0.19700
C1348       C  0.48843830  0.96159813  0.95795628     0.24700
C1349       C  0.50530869  0.97370401  0.97462481    -0.23300
C1350       C  0.50706835  0.98681394  0.99842384     0.19600
F1351       F  0.52323392  0.99930259  0.01395000    -0.13200
F1352       F  0.49481555  0.00092972  0.02783559    -0.15600
F1353       F  0.48595674  0.94841626  0.93557868    -0.15600
F1354       F  0.45755726  0.95036961  0.94906570    -0.13200
C1355       C  0.39361211  0.06573744  0.51835278     0.24800
C1356       C  0.40547855  0.06130009  0.52997703    -0.23300
C1357       C  0.40947192  0.06314235  0.56651849     0.19700
C1358       C  0.40192122  0.06917687  0.59040401     0.24700
C1359       C  0.38983700  0.07323778  0.57880525    -0.23300
C1360       C  0.38583544  0.07148829  0.54243815     0.19600
F1361       F  0.37395186  0.07485144  0.53007085    -0.13200
F1362       F  0.38957384  0.06480701  0.48355248    -0.15600
F1363       F  0.40678879  0.07133417  0.62498321    -0.15600
F1364       F  0.42037548  0.05872722  0.57978367    -0.13200
C1365       C  0.39485857  0.99662638  0.21232952     0.24800
C1366       C  0.40945190  0.00555938  0.18805422    -0.23300
C1367       C  0.42667425  0.01999046  0.20008538     0.19700
C1368       C  0.42959230  0.02463546  0.23595162     0.24700
C1369       C  0.41535177  0.01501206  0.26067303    -0.23300
C1370       C  0.39779316  0.00135757  0.24851226     0.19600
F1371       F  0.38383829  0.99172985  0.27189502    -0.13200
F1372       F  0.37815460  0.98246879  0.20151245    -0.15600
F1373       F  0.44652758  0.03837839  0.24667508    -0.15600
F1374       F  0.44087984  0.02937459  0.17709928    -0.13200
C1375       C  0.58808311  0.93138074  0.35465788     0.24800
C1376       C  0.60105739  0.92790473  0.36244008    -0.23300
C1377       C  0.60981819  0.93358418  0.39545202     0.19700
C1378       C  0.60564891  0.94247918  0.42016696     0.24700
C1379       C  0.59239250  0.94569368  0.41266581    -0.23300
C1380       C  0.58371759  0.94003388  0.37947102     0.19600
F1381       F  0.57041809  0.94216597  0.37126252    -0.13200
F1382       F  0.57897760  0.92571979  0.32348740    -0.15600
F1383       F  0.61499556  0.94831472  0.45105240    -0.15600
F1384       F  0.62283494  0.93099555  0.40351777    -0.13200
C1385       C  0.50298402  0.01960909  0.50115110     0.24800
C1386       C  0.50409413  0.02686329  0.46762666    -0.23300
C1387       C  0.51742076  0.02936550  0.44342096     0.19700
C1388       C  0.52896270  0.02422993  0.45211859     0.24700
C1389       C  0.52753355  0.01653798  0.48529167    -0.23300
C1390       C  0.51454752  0.01450036  0.50986888     0.19600
F1391       F  0.51236508  0.00671616  0.54182648    -0.13200
F1392       F  0.49008479  0.01655676  0.52498298    -0.15600
F1393       F  0.54178515  0.02712357  0.42822960    -0.15600
F1394       F  0.51951097  0.03706800  0.41139541    -0.13200
C1395       C  0.57700991  0.96504684  0.70665601     0.24800
C1396       C  0.58699041  0.98219467  0.69049650    -0.23300
C1397       C  0.59779153  0.99788393  0.71152324     0.19700
C1398       C  0.59839207  0.99646185  0.74830510     0.24700
C1399       C  0.58778799  0.97936211  0.76459348    -0.23300
C1400       C  0.57718420  0.96366650  0.74349459     0.19600
F1401       F  0.56671306  0.94701185  0.75869246    -0.13200
F1402       F  0.56626084  0.94970880  0.68697794    -0.15600
F1403       F  0.60843965  0.01184397  0.76819055    -0.15600
F1404       F  0.60758729  0.01458985  0.69644081    -0.13200
loop_ 
_geom_bond_atom_site_label_1 
_geom_bond_atom_site_label_2 
_geom_bond_distance 
_geom_bond_site_symmetry_2 
_ccdc_geom_bond_type 
N1            N2   1.322   1_565  A
N1            C5   1.348   1_565  A
N1           Cu9   2.092       .  S
N2            C3   1.345       .  A
N2           Cu8   2.075   1_545  S
C3            C4   1.386       .  A
C3            H6   1.081       .  S
C4            C5   1.390       .  A
C4         C1389   1.489       .  S
C5            H7   1.082   1_545  S
Cu8          N11   2.074       .  S
Cu9          N19   2.092       .  S
Cu10         N12   2.074       .  S
Cu10         N18   2.074       .  S
N11          N12   1.322       .  A
N11          C15   1.345       .  A
N12          C13   1.346       .  A
C13          C14   1.383       .  A
C13          H16   1.082       .  S
C14          C15   1.383       .  A
C14        C1396   1.474       .  S
C15          H17   1.082   1_565  S
N18          N19   1.322       .  A
N18          C22   1.345       .  A
N19          C20   1.346       .  A
C20          C21   1.392       .  A
C20          H23   1.081       .  S
C21          C22   1.388       .  A
C21        C1379   1.494       .  S
C22          H24   1.081       .  S
N25          N26   1.320       .  A
N25          C29   1.349       .  A
N25         Cu33   2.093       .  S
N26          C27   1.344       .  A
N26         Cu32   2.065       .  S
C27          C28   1.385       .  A
C27          H30   1.082       .  S
C28          C29   1.392       .  A
C28        C1386   1.490       .  S
C29          H31   1.082       .  S
Cu32         N35   2.065       .  S
Cu33         N43   2.095       .  S
Cu34         N36   2.089       .  S
Cu34         N42   2.091       .  S
N35          N36   1.322       .  A
N35          C39   1.340       .  A
N36          C37   1.351       .  A
C37          C38   1.388       .  A
C37          H40   1.082       .  S
C38          C39   1.381       .  A
C38        C1369   1.480       .  S
C39          H41   1.082       .  S
N42          N43   1.323       .  A
N42          C46   1.347       .  A
N43          C44   1.346       .  A
C44          C45   1.393       .  A
C44          H47   1.080       .  S
C45          C46   1.393       .  A
C45        C1356   1.503       .  S
C46          H48   1.080       .  S
N49          N50   1.323       .  A
N49          C53   1.349       .  A
N49         Cu57   2.089       .  S
N50          C51   1.341       .  A
N50         Cu56   2.059       .  S
C51          C52   1.379       .  A
C51          H54   1.082       .  S
C52          C53   1.387       .  A
C52        C1399   1.474       .  S
C53          H55   1.082       .  S
Cu56         N59   2.059       .  S
Cu57         N67   2.090       .  S
Cu58         N60   2.070       .  S
Cu58         N66   2.071       .  S
N59          N60   1.319       .  A
N59          C63   1.343       .  A
N60          C61   1.344       .  A
C61          C62   1.389       .  A
C61          H64   1.081   1_556  S
C62          C63   1.386       .  A
C62        C1349   1.484       .  S
C63          H65   1.081       .  S
N66          N67   1.322       .  A
N66          C70   1.343   1_566  A
N67          C68   1.347   1_565  A
C68          C69   1.391   1_556  A
C68          H71   1.081       .  S
C69          C70   1.386       .  A
C69        C1336   1.491       .  S
C70          H72   1.081       .  S
N73          N74   1.322       .  A
N73          C77   1.353       .  A
N73         Cu81   2.097       .  S
N74          C75   1.338       .  A
N74         Cu80   2.053       .  S
C75          C76   1.379       .  A
C75          H78   1.082       .  S
C76          C77   1.391       .  A
C76        C1366   1.480   1_565  S
C77          H79   1.082       .  S
Cu80         N83   2.052       .  S
Cu81         N91   2.099   1_554  S
Cu82         N84   2.075       .  S
Cu82         N90   2.077       .  S
N83          N84   1.319   1_554  A
N83          C87   1.341       .  A
N84          C85   1.346       .  A
C85          C86   1.389       .  A
C85          H88   1.082       .  S
C86          C87   1.383   1_556  A
C86        C1346   1.481       .  S
C87          H89   1.082       .  S
N90          N91   1.324       .  A
N90          C94   1.344       .  A
N91          C92   1.348       .  A
C92          C93   1.391       .  A
C92          H95   1.081       .  S
C93          C94   1.385       .  A
C93        C1329   1.491       .  S
C94          H96   1.081       .  S
N97          N98   1.323       .  A
N97         C101   1.353       .  A
N97        Cu105   2.101       .  S
N98          C99   1.339       .  A
N98        Cu104   2.062       .  S
C99         C100   1.379       .  A
C99         H102   1.082       .  S
C100        C101   1.390       .  A
C100       C1306   1.481       .  S
C101        H103   1.082       .  S
Cu104       N107   2.061       .  S
Cu105       N115   2.102       .  S
Cu106       N108   2.075       .  S
Cu106       N114   2.077       .  S
N107        N108   1.320       .  A
N107        C111   1.344       .  A
N108        C109   1.345       .  A
C109        C110   1.386       .  A
C109        H112   1.082       .  S
C110        C111   1.383       .  A
C110       C1316   1.478       .  S
C111        H113   1.082       .  S
N114        N115   1.324       .  A
N114        C118   1.345       .  A
N115        C116   1.348       .  A
C116        C117   1.393       .  A
C116        H119   1.081       .  S
C117        C118   1.386       .  A
C117       C1296   1.494       .  S
C118        H120   1.081       .  S
N121        N122   1.320       .  A
N121        C125   1.349       .  A
N121       Cu129   2.083       .  S
N122        C123   1.340       .  A
N122       Cu128   2.064       .  S
C123        C124   1.385       .  A
C123        H126   1.081       .  S
C124        C125   1.391       .  A
C124       C1286   1.487       .  S
C125        H127   1.081       .  S
Cu128       N131   2.064       .  S
Cu129       N139   2.084       .  S
Cu130       N132   2.078       .  S
Cu130       N138   2.079       .  S
N131        N132   1.320       .  A
N131        C135   1.343       .  A
N132        C133   1.346       .  A
C133        C134   1.390       .  A
C133        H136   1.081       .  S
C134        C135   1.386       .  A
C134       C1319   1.486       .  S
C135        H137   1.081       .  S
N138        N139   1.323       .  A
N138        C142   1.344       .  A
N139        C140   1.345       .  A
C140        C141   1.389       .  A
C140        H143   1.081       .  S
C141        C142   1.388       .  A
C141       C1276   1.491       .  S
C142        H144   1.081       .  S
N145        N146   1.321       .  A
N145        C149   1.349       .  A
N145       Cu153   2.082       .  S
N146        C147   1.341       .  A
N146       Cu152   2.064       .  S
C147        C148   1.381       .  A
C147        H150   1.082       .  S
C148        C149   1.387       .  A
C148       C1289   1.477       .  S
C149        H151   1.082       .  S
Cu152       N155   2.064       .  S
Cu153       N163   2.083       .  S
Cu154       N156   2.077   1_556  S
Cu154       N162   2.078       .  S
N155        N156   1.320       .  A
N155        C159   1.342       .  A
N156        C157   1.346   1_554  A
C157        C158   1.391   1_556  A
C157        H160   1.081       .  S
C158        C159   1.386       .  A
C158       C1269   1.489       .  S
C159        H161   1.081       .  S
N162        N163   1.324   1_556  A
N162        C166   1.346       .  A
N163        C164   1.345   1_554  A
C164        C165   1.384       .  A
C164        H167   1.082   1_556  S
C165        C166   1.383       .  A
C165       C1259   1.479       .  S
C166        H168   1.082       .  S
N169        N170   1.321       .  A
N169        C173   1.352       .  A
N169       Cu177   2.090       .  S
N170        C171   1.339       .  A
N170       Cu176   2.060       .  S
C171        C172   1.383       .  A
C171        H174   1.082       .  S
C172        C173   1.392       .  A
C172       C1309   1.486       .  S
C173        H175   1.082       .  S
Cu176       N179   2.059       .  S
Cu177       N187   2.091       .  S
Cu178       N180   2.077       .  S
Cu178       N186   2.079   1_556  S
N179        N180   1.318       .  A
N179        C183   1.341       .  A
N180        C181   1.347       .  A
C181        C182   1.393       .  A
C181        H184   1.081   1_556  S
C182        C183   1.387       .  A
C182       C1266   1.490       .  S
C183        H185   1.081       .  S
N186        N187   1.325   1_554  A
N186        C190   1.343       .  A
N187        C188   1.348       .  A
C188        C189   1.387   1_556  A
C188        H191   1.082       .  S
C189        C190   1.383       .  A
C189       C1246   1.482       .  S
C190        H192   1.082       .  S
N193        N194   1.322       .  A
N193        C197   1.350       .  A
N193       Cu201   2.094       .  S
N194        C195   1.342       .  A
N194       Cu200   2.069       .  S
C195        C196   1.383       .  A
C195        H198   1.081       .  S
C196        C197   1.391       .  A
C196       C1226   1.488       .  S
C197        H199   1.082       .  S
Cu200       N203   2.068       .  S
Cu201       N211   2.094       .  S
Cu202       N204   2.062       .  S
Cu202       N210   2.063       .  S
N203        N204   1.320       .  A
N203        C207   1.343   1_554  A
N204        C205   1.346       .  A
C205        C206   1.382   1_554  A
C205        H208   1.082       .  S
C206        C207   1.384       .  A
C206       C1236   1.473       .  S
C207        H209   1.082       .  S
N210        N211   1.322       .  A
N210        C214   1.341       .  A
N211        C212   1.348       .  A
C212        C213   1.393       .  A
C212        H215   1.081       .  S
C213        C214   1.385       .  A
C213       C1216   1.491       .  S
C214        H216   1.081       .  S
N217        N218   1.322       .  A
N217        C221   1.348       .  A
N217       Cu225   2.099       .  S
N218        C219   1.344       .  A
N218       Cu224   2.061       .  S
C219        C220   1.383       .  A
C219        H222   1.082       .  S
C220        C221   1.392       .  A
C220       C1229   1.488       .  S
C221        H223   1.081       .  S
Cu224       N227   2.061       .  S
Cu225       N235   2.100       .  S
Cu226       N228   2.068       .  S
Cu226       N234   2.070       .  S
N227        N228   1.321       .  A
N227        C231   1.340       .  A
N228        C229   1.346       .  A
C229        C230   1.384       .  A
C229        H232   1.082       .  S
C230        C231   1.381       .  A
C230       C1209   1.472       .  S
C231        H233   1.082       .  S
N234        N235   1.321       .  A
N234        C238   1.343       .  A
N235        C236   1.348       .  A
C236        C237   1.396       .  A
C236        H239   1.080       .  S
C237        C238   1.389       .  A
C237       C1196   1.502       .  S
C238        H240   1.080       .  S
N241        N242   1.320       .  A
N241        C245   1.350       .  A
N241       Cu249   2.089       .  S
N242        C243   1.337       .  A
N242       Cu248   2.048       .  S
C243        C244   1.381       .  A
C243        H246   1.082       .  S
C244        C245   1.393       .  A
C244       C1239   1.483       .  S
C245        H247   1.081       .  S
Cu248       N251   2.048       .  S
Cu249       N259   2.090       .  S
Cu250       N252   2.072       .  S
Cu250       N258   2.074       .  S
N251        N252   1.318       .  A
N251        C255   1.340       .  A
N252        C253   1.345       .  A
C253        C254   1.389       .  A
C253        H256   1.082       .  S
C254        C255   1.382       .  A
C254       C1186   1.479       .  S
C255        H257   1.082       .  S
N258        N259   1.324       .  A
N258        C262   1.342       .  A
N259        C260   1.347       .  A
C260        C261   1.390       .  A
C260        H263   1.081       .  S
C261        C262   1.385       .  A
C261       C1279   1.489       .  S
C262        H264   1.081       .  S
N265        N266   1.321       .  A
N265        C269   1.348       .  A
N265       Cu273   2.077       .  S
N266        C267   1.338       .  A
N266       Cu272   2.052       .  S
C267        C268   1.380       .  A
C267        H270   1.082       .  S
C268        C269   1.388       .  A
C268       C1206   1.476       .  S
C269        H271   1.082       .  S
Cu272       N275   2.052       .  S
Cu273       N283   2.078       .  S
Cu274       N276   2.070       .  S
Cu274       N282   2.071       .  S
N275        N276   1.320       .  A
N275        C279   1.341       .  A
N276        C277   1.345       .  A
C277        C278   1.385       .  A
C277        H280   1.082       .  S
C278        C279   1.381       .  A
C278       C1189   1.473       .  S
C279        H281   1.082       .  S
N282        N283   1.323       .  A
N282        C286   1.343       .  A
N283        C284   1.345       .  A
C284        C285   1.387       .  A
C284        H287   1.081       .  S
C285        C286   1.385       .  A
C285       C1176   1.485       .  S
C286        H288   1.081       .  S
N289        N290   1.322       .  A
N289        C293   1.351       .  A
N289       Cu297   2.094       .  S
N290        C291   1.340       .  A
N290       Cu296   2.060       .  S
C291        C292   1.380       .  A
C291        H294   1.082       .  S
C292        C293   1.391       .  A
C292       C1166   1.482       .  S
C293        H295   1.082       .  S
Cu296       N299   2.061       .  S
Cu297       N307   2.095       .  S
Cu298       N300   2.064       .  S
Cu298       N306   2.065       .  S
N299        N300   1.318       .  A
N299        C303   1.341       .  A
N300        C301   1.345       .  A
C301        C302   1.389       .  A
C301        H304   1.082       .  S
C302        C303   1.388       .  A
C302       C1156   1.487       .  S
C303        H305   1.082       .  S
N306        N307   1.324       .  A
N306        C310   1.342       .  A
N307        C308   1.348       .  A
C308        C309   1.389       .  A
C308        H311   1.082       .  S
C309        C310   1.381       .  A
C309       C1219   1.484       .  S
C310        H312   1.082       .  S
N313        N314   1.319       .  A
N313        C317   1.348       .  A
N313       Cu321   2.092       .  S
N314        C315   1.341       .  A
N314       Cu320   2.049       .  S
C315        C316   1.382       .  A
C315        H318   1.081       .  S
C316        C317   1.394       .  A
C316       C1169   1.487       .  S
C317        H319   1.081       .  S
Cu320       N323   2.048       .  S
Cu321       N331   2.093       .  S
Cu322       N324   2.086       .  S
Cu322       N330   2.088       .  S
N323        N324   1.320       .  A
N323        C327   1.338       .  A
N324        C325   1.350       .  A
C325        C326   1.391       .  A
C325        H328   1.082       .  S
C326        C327   1.380       .  A
C326       C1149   1.479       .  S
C327        H329   1.082       .  S
N330        N331   1.326       .  A
N330        C334   1.346       .  A
N331        C332   1.348       .  A
C332        C333   1.387       .  A
C332        H335   1.082       .  S
C333        C334   1.385       .  A
C333       C1376   1.487       .  S
C334        H336   1.082       .  S
N337        N338   1.323       .  A
N337        C341   1.349       .  A
N337       Cu345   2.085       .  S
N338        C339   1.340       .  A
N338       Cu344   2.064       .  S
C339        C340   1.382       .  A
C339        H342   1.081       .  S
C340        C341   1.388       .  A
C340       C1159   1.481       .  S
C341        H343   1.082       .  S
Cu344       N347   2.064       .  S
Cu345       N355   2.086       .  S
Cu346       N348   2.065       .  S
Cu346       N354   2.066       .  S
N347        N348   1.319       .  A
N347        C351   1.344       .  A
N348        C349   1.344       .  A
C349        C350   1.387       .  A
C349        H352   1.082       .  S
C350        C351   1.387       .  A
C350       C1136   1.484       .  S
C351        H353   1.081       .  S
N354        N355   1.322       .  A
N354        C358   1.341       .  A
N355        C356   1.348       .  A
C356        C357   1.389       .  A
C356        H359   1.082       .  S
C357        C358   1.383       .  A
C357       C1256   1.485       .  S
C358        H360   1.081       .  S
N361        N362   1.323       .  A
N361        C365   1.349       .  A
N361       Cu369   2.086       .  S
N362        C363   1.341       .  A
N362       Cu368   2.064       .  S
C363        C364   1.381       .  A
C363        H366   1.082       .  S
C364        C365   1.387       .  A
C364       C1146   1.478   1_556  S
C365        H367   1.082       .  S
Cu368       N371   2.064       .  S
Cu369       N379   2.087       .  S
Cu370       N372   2.074       .  S
Cu370       N378   2.075       .  S
N371        N372   1.320       .  A
N371        C375   1.344       .  A
N372        C373   1.345       .  A
C373        C374   1.387       .  A
C373        H376   1.082       .  S
C374        C375   1.384       .  A
C374       C1139   1.480       .  S
C375        H377   1.082       .  S
N378        N379   1.324       .  A
N378        C382   1.343       .  A
N379        C380   1.348       .  A
C380        C381   1.386       .  A
C380        H383   1.082       .  S
C381        C382   1.382       .  A
C381       C1129   1.479       .  S
C382        H384   1.082       .  S
N385        N386   1.322       .  A
N385        C389   1.350       .  A
N385       Cu393   2.086       .  S
N386        C387   1.339       .  A
N386       Cu392   2.064       .  S
C387        C388   1.382       .  A
C387        H390   1.082       .  S
C388        C389   1.389       .  A
C388       C1116   1.482   1_556  S
C389        H391   1.082       .  S
Cu392       N395   2.063       .  S
Cu393       N403   2.086       .  S
Cu394       N396   2.065       .  S
Cu394       N402   2.066       .  S
N395        N396   1.319       .  A
N395        C399   1.343       .  A
N396        C397   1.344       .  A
C397        C398   1.387       .  A
C397        H400   1.082       .  S
C398        C399   1.386       .  A
C398       C1106   1.481       .  S
C399        H401   1.082       .  S
N402        N403   1.323       .  A
N402        C406   1.342       .  A
N403        C404   1.346       .  A
C404        C405   1.388       .  A
C404        H407   1.081       .  S
C405        C406   1.383       .  A
C405       C1179   1.483       .  S
C406        H408   1.082       .  S
N409        N410   1.322       .  A
N409        C413   1.352       .  A
N409       Cu417   2.097       .  S
N410        C411   1.336       .  A
N410       Cu416   2.048       .  S
C411        C412   1.378       .  A
C411        H414   1.082       .  S
C412        C413   1.391       .  A
C412       C1099   1.480       .  S
C413        H415   1.082       .  S
Cu416       N419   2.048       .  S
Cu417       N427   2.099       .  S
Cu418       N420   2.072       .  S
Cu418       N426   2.074       .  S
N419        N420   1.318       .  A
N419        C423   1.342       .  A
N420        C421   1.345       .  A
C421        C422   1.388       .  A
C421        H424   1.082       .  S
C422        C423   1.383       .  A
C422       C1109   1.479       .  S
C423        H425   1.082       .  S
N426        N427   1.324       .  A
N426        C430   1.342       .  A
N427        C428   1.349       .  A
C428        C429   1.392       .  A
C428        H431   1.081       .  S
C429        C430   1.384       .  A
C429       C1326   1.491       .  S
C430        H432   1.081       .  S
N433        N434   1.321       .  A
N433        C437   1.350       .  A
N433       Cu441   2.080       .  S
N434        C435   1.339       .  A
N434       Cu440   2.057       .  S
C435        C436   1.380       .  A
C435        H438   1.082       .  S
C436        C437   1.387       .  A
C436       C1096   1.476       .  S
C437        H439   1.082       .  S
Cu440       N443   2.057       .  S
Cu441       N451   2.081       .  S
Cu442       N444   2.090       .  S
Cu442       N450   2.091       .  S
N443        N444   1.320       .  A
N443        C447   1.343       .  A
N444        C445   1.347       .  A
C445        C446   1.392       .  A
C445        H448   1.081       .  S
C446        C447   1.384       .  A
C446       C1086   1.488       .  S
C447        H449   1.081       .  S
N450        N451   1.323       .  A
N450        C454   1.347       .  A
N451        C452   1.344       .  A
C452        C453   1.388       .  A
C452        H455   1.081       .  S
C453        C454   1.391       .  A
C453       C1076   1.494       .  S
C454        H456   1.081       .  S
N457        N458   1.321       .  A
N457        C461   1.351       .  A
N457       Cu465   2.083       .  S
N458        C459   1.339       .  A
N458       Cu464   2.059       .  S
C459        C460   1.380       .  A
C459        H462   1.082       .  S
C460        C461   1.388       .  A
C460       C1119   1.476       .  S
C461        H463   1.082       .  S
Cu464       N467   2.059       .  S
Cu465       N475   2.085       .  S
Cu466       N468   2.088       .  S
Cu466       N474   2.090       .  S
N467        N468   1.320       .  A
N467        C471   1.341       .  A
N468        C469   1.349       .  A
C469        C470   1.392       .  A
C469        H472   1.082       .  S
C470        C471   1.384       .  A
C470       C1089   1.488       .  S
C471        H473   1.081       .  S
N474        N475   1.326       .  A
N474        C478   1.348       .  A
N475        C476   1.345       .  A
C476        C477   1.384       .  A
C476        H479   1.082       .  S
C477        C478   1.385       .  A
C477       C1066   1.483       .  S
C478        H480   1.082       .  S
N481        N482   1.321       .  A
N481        C485   1.351       .  A
N481       Cu489   2.089       .  S
N482        C483   1.339       .  A
N482       Cu488   2.055       .  S
C483        C484   1.379       .  A
C483        H486   1.082       .  S
C484        C485   1.389       .  A
C484       C1049   1.477       .  S
C485        H487   1.082       .  S
Cu488       N491   2.055       .  S
Cu489       N499   2.091       .  S
Cu490       N492   2.073       .  S
Cu490       N498   2.074       .  S
N491        N492   1.319       .  A
N491        C495   1.340       .  A
N492        C493   1.347       .  A
C493        C494   1.388       .  A
C493        H496   1.082       .  S
C494        C495   1.383       .  A
C494       C1059   1.480       .  S
C495        H497   1.082       .  S
N498        N499   1.324       .  A
N498        C502   1.343       .  A
N499        C500   1.347       .  A
C500        C501   1.389       .  A
C500        H503   1.081       .  S
C501        C502   1.385       .  A
C501       C1036   1.487       .  S
C502        H504   1.081       .  S
N505        N506   1.323       .  A
N505        C509   1.348       .  A
N505       Cu513   2.086       .  S
N506        C507   1.342       .  A
N506       Cu512   2.061       .  S
C507        C508   1.379       .  A
C507        H510   1.082       .  S
C508        C509   1.386       .  A
C508       C1026   1.475       .  S
C509        H511   1.082       .  S
Cu512       N515   2.060       .  S
Cu513       N523   2.086       .  S
Cu514       N516   2.073       .  S
Cu514       N522   2.074       .  S
N515        N516   1.320       .  A
N515        C519   1.344       .  A
N516        C517   1.345       .  A
C517        C518   1.387       .  A
C517        H520   1.082       .  S
C518        C519   1.383       .  A
C518       C1056   1.480       .  S
C519        H521   1.082       .  S
N522        N523   1.321       .  A
N522        C526   1.342       .  A
N523        C524   1.346       .  A
C524        C525   1.394       .  A
C524        H527   1.080   1_655  S
C525        C526   1.391       .  A
C525       C1069   1.500   1_655  S
C526        H528   1.079       .  S
N529        N530   1.322       .  A
N529        C533   1.350       .  A
N529       Cu537   2.101       .  S
N530        C531   1.344       .  A
N530       Cu536   2.066       .  S
C531        C532   1.384       .  A
C531        H534   1.081       .  S
C532        C533   1.393       .  A
C532       C1016   1.492       .  S
C533        H535   1.082   1_556  S
Cu536       N539   2.066       .  S
Cu537       N547   2.101       .  S
Cu538       N540   2.078       .  S
Cu538       N546   2.079       .  S
N539        N540   1.322       .  A
N539        C543   1.343       .  A
N540        C541   1.348       .  A
C541        C542   1.385       .  A
C541        H544   1.082       .  S
C542        C543   1.380       .  A
C542       C1029   1.473       .  S
C543        H545   1.082       .  S
N546        N547   1.324       .  A
N546        C550   1.345       .  A
N547        C548   1.349   1_556  A
C548        C549   1.391       .  A
C548        H551   1.082       .  S
C549        C550   1.386   1_554  A
C549       C1199   1.492       .  S
C550        H552   1.082       .  S
N553        N554   1.321   1_556  A
N553        C557   1.353       .  A
N553       Cu561   2.110       .  S
N554        C555   1.341   1_455  A
N554       Cu560   2.057       .  S
C555        C556   1.382   1_654  A
C555        H558   1.081       .  S
C556        C557   1.396       .  A
C556       C1019   1.491   1_455  S
C557        H559   1.081       .  S
Cu560       N563   2.057       .  S
Cu561       N571   2.112       .  S
Cu562       N564   2.089       .  S
Cu562       N570   2.091   1_554  S
N563        N564   1.319       .  A
N563        C567   1.340   1_455  A
N564        C565   1.350       .  A
C565        C566   1.392       .  A
C565        H568   1.081       .  S
C566        C567   1.385   1_455  A
C566       C1046   1.488   1_455  S
C567        H569   1.081       .  S
N570        N571   1.325       .  A
N570        C574   1.347       .  A
N571        C572   1.351       .  A
C572        C573   1.395       .  A
C572        H575   1.081       .  S
C573        C574   1.390       .  A
C573       C1009   1.503       .  S
C574        H576   1.081       .  S
N577        N578   1.321       .  A
N577        C581   1.351       .  A
N577       Cu585   2.100       .  S
N578        C579   1.344       .  A
N578       Cu584   2.066       .  S
C579        C580   1.383       .  A
C579        H582   1.082       .  S
C580        C581   1.392       .  A
C580        C999   1.488       .  S
C581        H583   1.082       .  S
Cu584       N587   2.066       .  S
Cu585       N595   2.102       .  S
Cu586       N588   2.094       .  S
Cu586       N594   2.096       .  S
N587        N588   1.322       .  A
N587        C591   1.341       .  A
N588        C589   1.353       .  A
C589        C590   1.389   1_556  A
C589        H592   1.082       .  S
C590        C591   1.380   1_554  A
C590        C986   1.480       .  S
C591        H593   1.082       .  S
N594        N595   1.323       .  A
N594        C598   1.347       .  A
N595        C596   1.348       .  A
C596        C597   1.395       .  A
C596        H599   1.080       .  S
C597        C598   1.393       .  A
C597        C976   1.507       .  S
C598        H600   1.080       .  S
N601        N602   1.320       .  A
N601        C605   1.351       .  A
N601       Cu609   2.109       .  S
N602        C603   1.342       .  A
N602       Cu608   2.059       .  S
C603        C604   1.386       .  A
C603        H606   1.080       .  S
C604        C605   1.398       .  A
C604        C996   1.500       .  S
C605        H607   1.081       .  S
Cu608       N611   2.057       .  S
Cu609       N619   2.110       .  S
Cu610       N612   2.083       .  S
Cu610       N618   2.085       .  S
N611        N612   1.320       .  A
N611        C615   1.341       .  A
N612        C613   1.347       .  A
C613        C614   1.389       .  A
C613        H616   1.082       .  S
C614        C615   1.384       .  A
C614        C966   1.483       .  S
C615        H617   1.081       .  S
N618        N619   1.323       .  A
N618        C622   1.346       .  A
N619        C620   1.350       .  A
C620        C621   1.397       .  A
C620        H623   1.080       .  S
C621        C622   1.392       .  A
C621       C1006   1.507       .  S
C622        H624   1.080       .  S
N625        N626   1.322       .  A
N625        C629   1.351       .  A
N625       Cu633   2.095       .  S
N626        C627   1.342       .  A
N626       Cu632   2.069       .  S
C627        C628   1.384       .  A
C627        H630   1.082       .  S
C628        C629   1.390       .  A
C628        C989   1.487       .  S
C629        H631   1.082       .  S
Cu632       N635   2.068       .  S
Cu633       N643   2.096       .  S
Cu634       N636   2.082       .  S
Cu634       N642   2.084       .  S
N635        N636   1.320       .  A
N635        C639   1.342       .  A
N636        C637   1.349       .  A
C637        C638   1.390       .  A
C637        H640   1.082       .  S
C638        C639   1.385       .  A
C638        C956   1.486       .  S
C639        H641   1.081       .  S
N642        N643   1.324       .  A
N642        C646   1.344       .  A
N643        C644   1.350       .  A
C644        C645   1.390       .  A
C644        H647   1.082       .  S
C645        C646   1.386       .  A
C645       C1299   1.492       .  S
C646        H648   1.081       .  S
N649        N650   1.322       .  A
N649        C653   1.348       .  A
N649       Cu657   2.081       .  S
N650        C651   1.340       .  A
N650       Cu656   2.062       .  S
C651        C652   1.382       .  A
C651        H654   1.082       .  S
C652        C653   1.387       .  A
C652        C969   1.480       .  S
C653        H655   1.082       .  S
Cu656       N659   2.062       .  S
Cu657       N667   2.082       .  S
Cu658       N660   2.079       .  S
Cu658       N666   2.079       .  S
N659        N660   1.320       .  A
N659        C663   1.345       .  A
N660        C661   1.344       .  A
C661        C662   1.389       .  A
C661        H664   1.081       .  S
C662        C663   1.385       .  A
C662        C959   1.485       .  S
C663        H665   1.082       .  S
N666        N667   1.322       .  A
N666        C670   1.345       .  A
N667        C668   1.346       .  A
C668        C669   1.390       .  A
C668        H671   1.081       .  S
C669        C670   1.389       .  A
C669        C946   1.493       .  S
C670        H672   1.081       .  S
N673        N674   1.320       .  A
N673        C677   1.350       .  A
N673       Cu681   2.101       .  S
N674        C675   1.342       .  A
N674       Cu680   2.055       .  S
C675        C676   1.383       .  A
C675        H678   1.081       .  S
C676        C677   1.395       .  A
C676        C929   1.492       .  S
C677        H679   1.081       .  S
Cu680       N683   2.054       .  S
Cu681       N691   2.102       .  S
Cu682       N684   2.083       .  S
Cu682       N690   2.085       .  S
N683        N684   1.321       .  A
N683        C687   1.339       .  A
N684        C685   1.351       .  A
C685        C686   1.387       .  A
C685        H688   1.082       .  S
C686        C687   1.378       .  A
C686        C939   1.472       .  S
C687        H689   1.082       .  S
N690        N691   1.325       .  A
N690        C694   1.345       .  A
N691        C692   1.349       .  A
C692        C693   1.391       .  A
C692        H695   1.081       .  S
C693        C694   1.386       .  A
C693       C1359   1.493       .  S
C694        H696   1.081       .  S
N697        N698   1.320       .  A
N697        C701   1.352       .  A
N697       Cu705   2.110       .  S
N698        C699   1.341       .  A
N698       Cu704   2.050       .  S
C699        C700   1.382       .  A
C699        H702   1.081       .  S
C700        C701   1.397       .  A
C700        C926   1.492       .  S
C701        H703   1.081       .  S
Cu704       N707   2.050       .  S
Cu705       N715   2.113       .  S
Cu706       N708   2.086       .  S
Cu706       N714   2.088       .  S
N707        N708   1.319       .  A
N707        C711   1.338       .  A
N708        C709   1.351       .  A
C709        C710   1.391       .  A
C709        H712   1.082       .  S
C710        C711   1.381       .  A
C710        C919   1.481       .  S
C711        H713   1.082       .  S
N714        N715   1.327       .  A
N714        C718   1.346       .  A
N715        C716   1.352       .  A
C716        C717   1.389       .  A
C716        H719   1.082       .  S
C717        C718   1.382       .  A
C717        C979   1.488       .  S
C718        H720   1.082       .  S
N721        N722   1.322       .  A
N721        C725   1.349   1_554  A
N721       Cu729   2.082       .  S
N722        C723   1.340   1_554  A
N722       Cu728   2.069       .  S
C723        C724   1.384       .  A
C723        H726   1.082       .  S
C724        C725   1.388       .  A
C724        C936   1.483       .  S
C725        H727   1.082       .  S
Cu728       N731   2.068       .  S
Cu729       N739   2.083       .  S
Cu730       N732   2.072       .  S
Cu730       N738   2.073       .  S
N731        N732   1.320       .  A
N731        C735   1.345       .  A
N732        C733   1.344       .  A
C733        C734   1.385       .  A
C733        H736   1.082       .  S
C734        C735   1.386       .  A
C734        C906   1.480       .  S
C735        H737   1.082       .  S
N738        N739   1.322       .  A
N738        C742   1.344       .  A
N739        C740   1.346       .  A
C740        C741   1.389       .  A
C740        H743   1.081       .  S
C741        C742   1.387       .  A
C741       C1079   1.489       .  S
C742        H744   1.081       .  S
N745        N746   1.323       .  A
N745        C749   1.351       .  A
N745       Cu753   2.090       .  S
N746        C747   1.340       .  A
N746       Cu752   2.065       .  S
C747        C748   1.379       .  A
C747        H750   1.082       .  S
C748        C749   1.386       .  A
C748        C916   1.475       .  S
C749        H751   1.082       .  S
Cu752       N755   2.064       .  S
Cu753       N763   2.091       .  S
Cu754       N756   2.069       .  S
Cu754       N762   2.070       .  S
N755        N756   1.320       .  A
N755        C759   1.344       .  A
N756        C757   1.345       .  A
C757        C758   1.385       .  A
C757        H760   1.082       .  S
C758        C759   1.384       .  A
C758        C909   1.477       .  S
C759        H761   1.082       .  S
N762        N763   1.324       .  A
N762        C766   1.342       .  A
N763        C764   1.349       .  A
C764        C765   1.385       .  A
C764        H767   1.082       .  S
C765        C766   1.379       .  A
C765       C1249   1.474       .  S
C766        H768   1.082       .  S
N769        N770   1.322       .  A
N769        C773   1.350       .  A
N769       Cu777   2.086       .  S
N770        C771   1.340       .  A
N770       Cu776   2.065       .  S
C771        C772   1.381       .  A
C771        H774   1.082       .  S
C772        C773   1.388       .  A
C772        C886   1.480       .  S
C773        H775   1.082       .  S
Cu776       N779   2.066       .  S
Cu777       N787   2.087       .  S
Cu778       N780   2.075       .  S
Cu778       N786   2.077       .  S
N779        N780   1.319       .  A
N779        C783   1.343       .  A
N780        C781   1.346       .  A
C781        C782   1.388       .  A
C781        H784   1.082       .  S
C782        C783   1.386       .  A
C782        C896   1.485       .  S
C783        H785   1.081       .  S
N786        N787   1.323       .  A
N786        C790   1.343       .  A
N787        C788   1.347       .  A
C788        C789   1.391       .  A
C788        H791   1.081       .  S
C789        C790   1.387       .  A
C789       C1339   1.492       .  S
C790        H792   1.081       .  S
N793        N794   1.324       .  A
N793        C797   1.347       .  A
N793       Cu801   2.084       .  S
N794        C795   1.345   1_554  A
N794       Cu800   2.078       .  S
C795        C796   1.381       .  A
C795        H798   1.082       .  S
C796        C797   1.383   1_556  A
C796        C876   1.473       .  S
C797        H799   1.082       .  S
Cu800       N803   2.078       .  S
Cu801       N811   2.084       .  S
Cu802       N804   2.068       .  S
Cu802       N810   2.068       .  S
N803        N804   1.321       .  A
N803        C807   1.347       .  A
N804        C805   1.343       .  A
C805        C806   1.385       .  A
C805        H808   1.081       .  S
C806        C807   1.388       .  A
C806        C899   1.484       .  S
C807        H809   1.082       .  S
N810        N811   1.322       .  A
N810        C814   1.344       .  A
N811        C812   1.347       .  A
C812        C813   1.388       .  A
C812        H815   1.082       .  S
C813        C814   1.384       .  A
C813        C949   1.483       .  S
C814        H816   1.082       .  S
N817        N818   1.323       .  A
N817        C821   1.349       .  A
N817       Cu825   2.087       .  S
N818        C819   1.342       .  A
N818       Cu824   2.062       .  S
C819        C820   1.379       .  A
C819        H822   1.082       .  S
C820        C821   1.386       .  A
C820        C879   1.473       .  S
C821        H823   1.082       .  S
Cu824       N827   2.062       .  S
Cu825       N835   2.087       .  S
Cu826       N828   2.066       .  S
Cu826       N834   2.067       .  S
N827        N828   1.319       .  A
N827        C831   1.342       .  A
N828        C829   1.344       .  A
C829        C830   1.387       .  A
C829        H832   1.081       .  S
C830        C831   1.385       .  A
C830        C866   1.481       .  S
C831        H833   1.082       .  S
N834        N835   1.322       .  A
N834        C838   1.341       .  A
N835        C836   1.347       .  A
C836        C837   1.392       .  A
C836        H839   1.081       .  S
C837        C838   1.386       .  A
C837       C1039   1.490       .  S
C838        H840   1.081       .  S
N841        N842   1.323       .  A
N841        C845   1.350       .  A
N841       Cu849   2.086       .  S
N842        C843   1.340       .  A
N842       Cu848   2.063       .  S
C843        C844   1.379       .  A
C843        H846   1.082       .  S
C844        C845   1.386       .  A
C844        C889   1.474       .  S
C845        H847   1.082       .  S
Cu848       N851   2.062       .  S
Cu849       N859   2.087       .  S
Cu850       N852   2.069       .  S
Cu850       N858   2.071       .  S
N851        N852   1.320       .  A
N851        C855   1.343       .  A
N852        C853   1.344       .  A
C853        C854   1.386       .  A
C853        H856   1.082       .  S
C854        C855   1.384       .  A
C854        C869   1.479       .  S
C855        H857   1.082       .  S
N858        N859   1.324       .  A
N858        C862   1.343       .  A
N859        C860   1.348       .  A
C860        C861   1.385       .  A
C860        H863   1.082       .  S
C861        C862   1.381       .  A
C861       C1126   1.476       .  S
C862        H864   1.082       .  S
C865        C866   1.408       .  A
C865        C870   1.398       .  A
C865        F872   1.357       .  S
C866        C867   1.408       .  A
C867        C868   1.397       .  A
C867        F874   1.358       .  S
C868        C869   1.406       .  A
C868        F873   1.358       .  S
C869        C870   1.407       .  A
C870        F871   1.358       .  S
C875        C876   1.404       .  A
C875        C880   1.398       .  A
C875        F882   1.358       .  S
C876        C877   1.405       .  A
C877        C878   1.402       .  A
C877        F884   1.358       .  S
C878        C879   1.405       .  A
C878        F883   1.358       .  S
C879        C880   1.405       .  A
C880        F881   1.358       .  S
C885        C886   1.406       .  A
C885        C890   1.394       .  A
C885        F892   1.358       .  S
C886        C887   1.409       .  A
C887        C888   1.405       .  A
C887        F894   1.357       .  S
C888        C889   1.405       .  A
C888        F893   1.358       .  S
C889        C890   1.404       .  A
C890        F891   1.358       .  S
C895        C896   1.408       .  A
C895        C900   1.401       .  A
C895        F902   1.357       .  S
C896        C897   1.408       .  A
C897        C898   1.397       .  A
C897        F904   1.357       .  S
C898        C899   1.408       .  A
C898        F903   1.357       .  S
C899        C900   1.407       .  A
C900        F901   1.357       .  S
C905        C906   1.407       .  A
C905        C910   1.398       .  A
C905        F912   1.358       .  S
C906        C907   1.407       .  A
C907        C908   1.399       .  A
C907        F914   1.357       .  S
C908        C909   1.405       .  A
C908        F913   1.358       .  S
C909        C910   1.406       .  A
C910        F911   1.358       .  S
C915        C916   1.403       .  A
C915        C920   1.394       .  A
C915        F922   1.358       .  S
C916        C917   1.405       .  A
C917        C918   1.405       .  A
C917        F924   1.357       .  S
C918        C919   1.408       .  A
C918        F923   1.357       .  S
C919        C920   1.407       .  A
C920        F921   1.358       .  S
C925        C926   1.406       .  A
C925        C930   1.403       .  A
C925        F932   1.357       .  S
C926        C927   1.412       .  A
C927        C928   1.401       .  A
C927        F934   1.357       .  S
C928        C929   1.406       .  A
C928        F933   1.357       .  S
C929        C930   1.412       .  A
C930        F931   1.357       .  S
C935        C936   1.411       .  A
C935        C940   1.405       .  A
C935        F942   1.357       .  S
C936        C937   1.407       .  A
C937        C938   1.393       .  A
C937        F944   1.358       .  S
C938        C939   1.402       .  A
C938        F943   1.358       .  S
C939        C940   1.404       .  A
C940        F941   1.358       .  S
C945        C946   1.412       .  A
C945        C950   1.400       .  A
C945        F952   1.357       .  S
C946        C947   1.411   1_455  A
C947        C948   1.400       .  A
C947        F954   1.357       .  S
C948        C949   1.406       .  A
C948        F953   1.358       .  S
C949        C950   1.405   1_655  A
C950        F951   1.358       .  S
C955        C956   1.409       .  A
C955        C960   1.404       .  A
C955        F962   1.357       .  S
C956        C957   1.408       .  A
C957        C958   1.396       .  A
C957        F964   1.357       .  S
C958        C959   1.406       .  A
C958        F963   1.357       .  S
C959        C960   1.409       .  A
C960        F961   1.358       .  S
C965        C966   1.408       .  A
C965        C970   1.402       .  A
C965        F972   1.357       .  S
C966        C967   1.409       .  A
C967        C968   1.394       .  A
C967        F974   1.357       .  S
C968        C969   1.406       .  A
C968        F973   1.358       .  S
C969        C970   1.406       .  A
C970        F971   1.357       .  S
C975        C976   1.416       .  A
C975        C980   1.405       .  A
C975        F982   1.356       .  S
C976        C977   1.415       .  A
C977        C978   1.403       .  A
C977        F984   1.356       .  S
C978        C979   1.404       .  A
C978        F983   1.358       .  S
C979        C980   1.404       .  A
C980        F981   1.358       .  S
C985        C986   1.404       .  A
C985        C990   1.396       .  A
C985        F992   1.358       .  S
C986        C987   1.406       .  A
C987        C988   1.407       .  A
C987        F994   1.357       .  S
C988        C989   1.410       .  A
C988        F993   1.357       .  S
C989        C990   1.408       .  A
C990        F991   1.358       .  S
C995        C996   1.415       .  A
C995       C1000   1.403       .  A
C995       F1002   1.356       .  S
C996        C997   1.411       .  A
C997        C998   1.403       .  A
C997       F1004   1.356       .  S
C998        C999   1.408       .  A
C998       F1003   1.358       .  S
C999       C1000   1.404       .  A
C1000      F1001   1.358       .  S
C1005      C1006   1.414       .  A
C1005      C1010   1.405       .  A
C1005      F1012   1.356       .  S
C1006      C1007   1.412       .  A
C1007      C1008   1.404       .  A
C1007      F1014   1.356       .  S
C1008      C1009   1.411       .  A
C1008      F1013   1.357       .  S
C1009      C1010   1.410       .  A
C1010      F1011   1.357       .  S
C1015      C1016   1.412       .  A
C1015      C1020   1.404       .  A
C1015      F1022   1.357       .  S
C1016      C1017   1.406   1_556  A
C1017      C1018   1.401       .  A
C1017      F1024   1.357       .  S
C1018      C1019   1.411   1_554  A
C1018      F1023   1.357   1_655  S
C1019      C1020   1.406       .  A
C1020      F1021   1.357       .  S
C1025      C1026   1.406       .  A
C1025      C1030   1.399       .  A
C1025      F1032   1.358       .  S
C1026      C1027   1.405       .  A
C1027      C1028   1.399       .  A
C1027      F1034   1.358       .  S
C1028      C1029   1.405       .  A
C1028      F1033   1.358       .  S
C1029      C1030   1.404       .  A
C1030      F1031   1.358       .  S
C1035      C1036   1.409       .  A
C1035      C1040   1.400       .  A
C1035      F1042   1.357       .  S
C1036      C1037   1.407       .  A
C1037      C1038   1.398       .  A
C1037      F1044   1.357       .  S
C1038      C1039   1.410       .  A
C1038      F1043   1.357       .  S
C1039      C1040   1.409       .  A
C1040      F1041   1.357       .  S
C1045      C1046   1.411   1_455  A
C1045      C1050   1.405       .  A
C1045      F1052   1.357       .  S
C1046      C1047   1.409       .  A
C1047      C1048   1.395       .  A
C1047      F1054   1.357       .  S
C1048      C1049   1.403       .  A
C1048      F1053   1.358       .  S
C1049      C1050   1.404   1_655  A
C1050      F1051   1.357       .  S
C1055      C1056   1.406       .  A
C1055      C1060   1.396       .  A
C1055      F1062   1.358       .  S
C1056      C1057   1.407       .  A
C1057      C1058   1.400       .  A
C1057      F1064   1.358       .  S
C1058      C1059   1.407       .  A
C1058      F1063   1.357       .  S
C1059      C1060   1.407       .  A
C1060      F1061   1.358   1_655  S
C1065      C1066   1.403       .  A
C1065      C1070   1.398       .  A
C1065      F1072   1.358       .  S
C1066      C1067   1.404       .  A
C1067      C1068   1.402       .  A
C1067      F1074   1.358       .  S
C1068      C1069   1.415       .  A
C1068      F1073   1.356       .  S
C1069      C1070   1.415       .  A
C1070      F1071   1.355       .  S
C1075      C1076   1.411   1_545  A
C1075      C1080   1.399       .  A
C1075      F1082   1.357       .  S
C1076      C1077   1.410       .  A
C1077      C1078   1.401   1_565  A
C1077      F1084   1.357       .  S
C1078      C1079   1.408       .  A
C1078      F1083   1.357   1_545  S
C1079      C1080   1.408       .  A
C1080      F1081   1.357       .  S
C1085      C1086   1.411       .  A
C1085      C1090   1.402       .  A
C1085      F1092   1.357       .  S
C1086      C1087   1.406       .  A
C1087      C1088   1.398       .  A
C1087      F1094   1.357       .  S
C1088      C1089   1.410       .  A
C1088      F1093   1.357       .  S
C1089      C1090   1.407       .  A
C1090      F1091   1.357       .  S
C1095      C1096   1.404       .  A
C1095      C1100   1.393       .  A
C1095      F1102   1.358       .  S
C1096      C1097   1.407       .  A
C1097      C1098   1.405       .  A
C1097      F1104   1.357       .  S
C1098      C1099   1.407       .  A
C1098      F1103   1.357       .  S
C1099      C1100   1.407       .  A
C1100      F1101   1.358       .  S
C1105      C1106   1.408       .  A
C1105      C1110   1.397       .  A
C1105      F1112   1.357       .  S
C1106      C1107   1.407       .  A
C1107      C1108   1.398       .  A
C1107      F1114   1.357       .  S
C1108      C1109   1.407       .  A
C1108      F1113   1.358       .  S
C1109      C1110   1.405       .  A
C1110      F1111   1.357       .  S
C1115      C1116   1.409       .  A
C1115      C1120   1.406       .  A
C1115      F1122   1.357       .  S
C1116      C1117   1.407       .  A
C1117      C1118   1.394       .  A
C1117      F1124   1.358       .  S
C1118      C1119   1.403       .  A
C1118      F1123   1.358       .  S
C1119      C1120   1.406       .  A
C1120      F1121   1.357       .  S
C1125      C1126   1.405   1_565  A
C1125      C1130   1.402       .  A
C1125      F1132   1.358   1_565  S
C1126      C1127   1.405       .  A
C1127      C1128   1.397   1_545  A
C1127      F1134   1.358       .  S
C1128      C1129   1.406       .  A
C1128      F1133   1.358       .  S
C1129      C1130   1.407       .  A
C1130      F1131   1.357       .  S
C1135      C1136   1.409       .  A
C1135      C1140   1.398       .  A
C1135      F1142   1.357       .  S
C1136      C1137   1.408       .  A
C1137      C1138   1.399       .  A
C1137      F1144   1.358       .  S
C1138      C1139   1.406       .  A
C1138      F1143   1.358       .  S
C1139      C1140   1.405       .  A
C1140      F1141   1.358       .  S
C1145      C1146   1.405       .  A
C1145      C1150   1.395       .  A
C1145      F1152   1.358       .  S
C1146      C1147   1.407       .  A
C1147      C1148   1.403       .  A
C1147      F1154   1.357       .  S
C1148      C1149   1.407       .  A
C1148      F1153   1.357       .  S
C1149      C1150   1.407       .  A
C1150      F1151   1.358       .  S
C1155      C1156   1.409       .  A
C1155      C1160   1.394       .  A
C1155      F1162   1.357       .  S
C1156      C1157   1.411       .  A
C1157      C1158   1.402       .  A
C1157      F1164   1.357       .  S
C1158      C1159   1.405       .  A
C1158      F1163   1.358       .  S
C1159      C1160   1.406       .  A
C1160      F1161   1.358       .  S
C1165      C1166   1.408       .  A
C1165      C1170   1.398       .  A
C1165      F1172   1.358       .  S
C1166      C1167   1.404       .  A
C1167      C1168   1.401       .  A
C1167      F1174   1.358       .  S
C1168      C1169   1.412       .  A
C1168      F1173   1.357       .  S
C1169      C1170   1.406       .  A
C1170      F1171   1.357       .  S
C1175      C1176   1.409       .  A
C1175      C1180   1.398       .  A
C1175      F1182   1.357       .  S
C1176      C1177   1.408       .  A
C1177      C1178   1.398   1_655  A
C1177      F1184   1.357       .  S
C1178      C1179   1.408       .  A
C1178      F1183   1.357       .  S
C1179      C1180   1.407   1_455  A
C1180      F1181   1.357       .  S
C1185      C1186   1.406       .  A
C1185      C1190   1.397       .  A
C1185      F1192   1.357       .  S
C1186      C1187   1.409       .  A
C1187      C1188   1.397       .  A
C1187      F1194   1.357       .  S
C1188      C1189   1.403       .  A
C1188      F1193   1.358       .  S
C1189      C1190   1.405       .  A
C1190      F1191   1.358       .  S
C1195      C1196   1.412       .  A
C1195      C1200   1.402       .  A
C1195      F1202   1.356       .  S
C1196      C1197   1.415       .  A
C1197      C1198   1.402       .  A
C1197      F1204   1.356       .  S
C1198      C1199   1.406       .  A
C1198      F1203   1.357       .  S
C1199      C1200   1.408       .  A
C1200      F1201   1.357       .  S
C1205      C1206   1.406       .  A
C1205      C1210   1.393       .  A
C1205      F1212   1.358       .  S
C1206      C1207   1.407       .  A
C1207      C1208   1.401       .  A
C1207      F1214   1.357       .  S
C1208      C1209   1.406       .  A
C1208      F1213   1.358       .  S
C1209      C1210   1.403       .  A
C1210      F1211   1.358       .  S
C1215      C1216   1.412       .  A
C1215      C1220   1.398       .  A
C1215      F1222   1.357       .  S
C1216      C1217   1.409       .  A
C1217      C1218   1.400       .  A
C1217      F1224   1.357       .  S
C1218      C1219   1.408       .  A
C1218      F1223   1.358       .  S
C1219      C1220   1.404       .  A
C1220      F1221   1.358       .  S
C1225      C1226   1.407       .  A
C1225      C1230   1.403       .  A
C1225      F1232   1.358       .  S
C1226      C1227   1.409       .  A
C1227      C1228   1.398       .  A
C1227      F1234   1.357       .  S
C1228      C1229   1.405       .  A
C1228      F1233   1.357       .  S
C1229      C1230   1.411       .  A
C1230      F1231   1.357       .  S
C1235      C1236   1.405       .  A
C1235      C1240   1.402       .  A
C1235      F1242   1.358       .  S
C1236      C1237   1.401       .  A
C1237      C1238   1.394       .  A
C1237      F1244   1.358       .  S
C1238      C1239   1.410       .  A
C1238      F1243   1.358       .  S
C1239      C1240   1.409       .  A
C1240      F1241   1.357       .  S
C1245      C1246   1.408       .  A
C1245      C1250   1.397       .  A
C1245      F1252   1.358       .  S
C1246      C1247   1.409       .  A
C1247      C1248   1.403       .  A
C1247      F1254   1.357       .  S
C1248      C1249   1.404       .  A
C1248      F1253   1.358       .  S
C1249      C1250   1.403       .  A
C1250      F1251   1.358       .  S
C1255      C1256   1.409       .  A
C1255      C1260   1.402       .  A
C1255      F1262   1.357       .  S
C1256      C1257   1.409       .  A
C1257      C1258   1.397       .  A
C1257      F1264   1.357       .  S
C1258      C1259   1.404       .  A
C1258      F1263   1.358       .  S
C1259      C1260   1.406       .  A
C1260      F1261   1.358       .  S
C1265      C1266   1.408   1_554  A
C1265      C1270   1.399       .  A
C1265      F1272   1.357       .  S
C1266      C1267   1.411       .  A
C1267      C1268   1.398       .  A
C1267      F1274   1.357       .  S
C1268      C1269   1.407   1_556  A
C1268      F1273   1.357       .  S
C1269      C1270   1.410       .  A
C1270      F1271   1.357       .  S
C1275      C1276   1.409       .  A
C1275      C1280   1.399       .  A
C1275      F1282   1.357       .  S
C1276      C1277   1.410       .  A
C1277      C1278   1.400       .  A
C1277      F1284   1.357       .  S
C1278      C1279   1.408       .  A
C1278      F1283   1.357       .  S
C1279      C1280   1.409       .  A
C1280      F1281   1.357       .  S
C1285      C1286   1.409       .  A
C1285      C1290   1.395       .  A
C1285      F1292   1.357       .  S
C1286      C1287   1.411       .  A
C1287      C1288   1.404       .  A
C1287      F1294   1.357       .  S
C1288      C1289   1.405       .  A
C1288      F1293   1.358       .  S
C1289      C1290   1.403       .  A
C1290      F1291   1.358       .  S
C1295      C1296   1.412       .  A
C1295      C1300   1.405       .  A
C1295      F1302   1.358       .  S
C1296      C1297   1.408       .  A
C1297      C1298   1.400       .  A
C1297      F1304   1.356       .  S
C1298      C1299   1.408       .  A
C1298      F1303   1.357       .  S
C1299      C1300   1.408       .  A
C1300      F1301   1.357       .  S
C1305      C1306   1.404       .  A
C1305      C1310   1.394       .  A
C1305      F1312   1.358       .  S
C1306      C1307   1.407       .  A
C1307      C1308   1.407       .  A
C1307      F1314   1.357       .  S
C1308      C1309   1.410       .  A
C1308      F1313   1.357       .  S
C1309      C1310   1.407       .  A
C1310      F1311   1.358       .  S
C1315      C1316   1.404       .  A
C1315      C1320   1.399       .  A
C1315      F1322   1.358       .  S
C1316      C1317   1.405       .  A
C1317      C1318   1.399       .  A
C1317      F1324   1.358       .  S
C1318      C1319   1.409       .  A
C1318      F1323   1.357       .  S
C1319      C1320   1.410       .  A
C1320      F1321   1.357       .  S
C1325      C1326   1.408       .  A
C1325      C1330   1.402       .  A
C1325      F1332   1.357       .  S
C1326      C1327   1.410       .  A
C1327      C1328   1.400       .  A
C1327      F1334   1.357       .  S
C1328      C1329   1.408       .  A
C1328      F1333   1.357       .  S
C1329      C1330   1.411       .  A
C1330      F1331   1.357       .  S
C1335      C1336   1.408       .  A
C1335      C1340   1.400       .  A
C1335      F1342   1.357   1_554  S
C1336      C1337   1.410       .  A
C1337      C1338   1.400       .  A
C1337      F1344   1.357   1_545  S
C1338      C1339   1.409       .  A
C1338      F1343   1.357       .  S
C1339      C1340   1.410       .  A
C1340      F1341   1.357       .  S
C1345      C1346   1.407   1_554  A
C1345      C1350   1.396   1_554  A
C1345      F1352   1.358   1_565  S
C1346      C1347   1.406       .  A
C1347      C1348   1.399       .  A
C1347      F1354   1.357       .  S
C1348      C1349   1.409       .  A
C1348      F1353   1.357       .  S
C1349      C1350   1.408       .  A
C1350      F1351   1.357   1_556  S
C1355      C1356   1.414       .  A
C1355      C1360   1.404       .  A
C1355      F1362   1.356       .  S
C1356      C1357   1.413       .  A
C1357      C1358   1.401       .  A
C1357      F1364   1.356       .  S
C1358      C1359   1.408       .  A
C1358      F1363   1.357       .  S
C1359      C1360   1.407       .  A
C1360      F1361   1.357       .  S
C1365      C1366   1.407   1_565  A
C1365      C1370   1.407   1_565  A
C1365      F1372   1.357       .  S
C1366      C1367   1.406       .  A
C1367      C1368   1.394       .  A
C1367      F1374   1.358       .  S
C1368      C1369   1.404       .  A
C1368      F1373   1.358       .  S
C1369      C1370   1.408       .  A
C1370      F1371   1.357   1_545  S
C1375      C1376   1.407       .  A
C1375      C1380   1.400       .  A
C1375      F1382   1.357       .  S
C1376      C1377   1.407       .  A
C1377      C1378   1.403       .  A
C1377      F1384   1.358       .  S
C1378      C1379   1.412       .  A
C1378      F1383   1.357       .  S
C1379      C1380   1.410       .  A
C1380      F1381   1.356       .  S
C1385      C1386   1.407       .  A
C1385      C1390   1.402       .  A
C1385      F1392   1.357       .  S
C1386      C1387   1.410       .  A
C1387      C1388   1.402       .  A
C1387      F1394   1.358       .  S
C1388      C1389   1.407       .  A
C1388      F1393   1.358       .  S
C1389      C1390   1.410       .  A
C1390      F1391   1.357       .  S
C1395      C1396   1.405       .  A
C1395      C1400   1.399       .  A
C1395      F1402   1.358       .  S
C1396      C1397   1.405       .  A
C1397      C1398   1.400       .  A
C1397      F1404   1.358   1_565  S
C1398      C1399   1.405       .  A
C1398      F1403   1.358   1_565  S
C1399      C1400   1.405       .  A
C1400      F1401   1.358       .  S
