geometry optimzed in LAMMPS
_audit_creation_date              2020-12-01 
_audit_creation_method            'lammps2cif' 
_symmetry_space_group_name_H-M    'P1' 
_symmetry_Int_Tables_number       1 
_symmetry_cell_setting            triclinic 
loop_ 
_symmetry_equiv_pos_as_xyz 
  x,y,z 
_cell_length_a                    54.22806778 
_cell_length_b                    54.47353726973465 
_cell_length_c                    30.262355345180687 
_cell_angle_alpha                 90.14351380700701 
_cell_angle_beta                  89.99416111325654 
_cell_angle_gamma                 90.18856272695005 
loop_ 
_atom_site_label 
_atom_site_type_symbol 
_atom_site_fract_x 
_atom_site_fract_y 
_atom_site_fract_z 
_atom_site_charge 
Fe1        Fe  0.15501814  0.34644361  0.84710918     1.65800
Fe2        Fe  0.09897699  0.36630433  0.87939683     1.73200
Fe3        Fe  0.10344582  0.31447989  0.81467451     1.54400
O4          O  0.12332555  0.32243318  0.75737620    -0.82100
O5          O  0.08133909  0.33845067  0.91304363    -0.80400
O6          O  0.15559844  0.34491172  0.77985780    -0.84600
O7          O  0.16231225  0.30972730  0.85276050    -0.79400
O8          O  0.07509355  0.33503350  0.78936316    -0.81200
O9          O  0.12353317  0.36943521  0.93142985    -0.83900
C10         C  0.15099568  0.28959863  0.84773216     0.96800
C11         C  0.14242534  0.33546350  0.74956856     1.04300
O12         O  0.11902120  0.34223633  0.84702779    -1.12900
O13         O  0.11469531  0.39594450  0.84753243    -0.75400
O14         O  0.15385100  0.38450126  0.84172063    -0.78800
O15         O  0.12887092  0.28850672  0.83458948    -0.79500
C16         C  0.13708307  0.40065322  0.83875218     0.95700
O17         O  0.15707619  0.34799027  0.91447920    -0.77500
O18         O  0.07129030  0.36750028  0.83327055    -0.82700
C19         C  0.07523769  0.31640662  0.90408270     0.98300
C20         C  0.06416963  0.35444356  0.80111362     1.04300
O21         O  0.08174639  0.30514633  0.86897218    -0.78300
C22         C  0.14412160  0.36002286  0.94156633     1.02600
Fe23       Fe  0.33604343  0.16416980  0.84155923     1.65800
Fe24       Fe  0.35674931  0.10935947  0.87989968     1.73200
Fe25       Fe  0.30284170  0.11136921  0.82322608     1.54400
O26         O  0.27852822  0.14010886  0.83394725    -0.82100
O27         O  0.36014268  0.08395987  0.83024075    -0.80400
O28         O  0.30041182  0.17138760  0.86019074    -0.84600
O29         O  0.32657970  0.16240080  0.77537727    -0.79400
O30         O  0.29278581  0.09646334  0.88351194    -0.81200
O31         O  0.38658069  0.12738448  0.85251822    -0.83900
C32         C  0.32015041  0.14529204  0.74903900     0.96800
C33         C  0.27996913  0.16135382  0.85095157     1.04300
O34         O  0.33186520  0.12840941  0.84843427    -1.12900
O35         O  0.35583794  0.13277353  0.93266830    -0.75400
O36         O  0.34601679  0.16978551  0.90676416    -0.78800
O37         O  0.31199467  0.12455323  0.76168516    -0.79500
C38         C  0.35213389  0.15554757  0.93799279     0.95700
O39         O  0.37258790  0.16187935  0.82267865    -0.77500
O40         O  0.33012633  0.08883445  0.91172821    -0.82700
C41         C  0.34356236  0.07210405  0.80990259     0.98300
C42         C  0.30676700  0.08673425  0.91228196     1.04300
O43         O  0.32142925  0.07937643  0.80801565    -0.78300
C44         C  0.38995787  0.14706430  0.83106160     1.02600
Fe45       Fe  0.15510004  0.69322684  0.19081615     1.65800
Fe46       Fe  0.09843452  0.67366801  0.15751639     1.73200
Fe47       Fe  0.10389835  0.72679489  0.21421260     1.54400
O48         O  0.11738049  0.71612534  0.27435768    -0.82100
O49         O  0.07663536  0.70099975  0.13012536    -0.80400
O50         O  0.15549749  0.70327437  0.25718014    -0.84600
O51         O  0.16249242  0.72838265  0.17040760    -0.79400
O52         O  0.07065369  0.70926752  0.22878686    -0.81200
O53         O  0.11984282  0.67528773  0.10176359    -0.83900
C54         C  0.15413506  0.74875601  0.18362697     0.96800
C55         C  0.13870040  0.70854298  0.28509430     1.04300
O56         O  0.11928231  0.69778882  0.18733942    -1.12900
O57         O  0.11757259  0.64328510  0.18086753    -0.75400
O58         O  0.15253935  0.65716212  0.21040049    -0.78800
O59         O  0.13388001  0.75027480  0.20446370    -0.79500
C60         C  0.13776200  0.63980235  0.20122007     0.95700
O61         O  0.15823152  0.68256326  0.12540295    -0.77500
O62         O  0.07485448  0.67010463  0.21058206    -0.82700
C63         C  0.07647311  0.72437874  0.12902436     0.98300
C64         C  0.06273758  0.68729545  0.22853626     1.04300
O65         O  0.08938328  0.73776145  0.15460946    -0.78300
C66         C  0.14281478  0.67769046  0.09499994     1.02600
Fe67       Fe  0.33943676  0.87707531  0.19709137     1.65800
Fe68       Fe  0.35997393  0.93304390  0.16446883     1.73200
Fe69       Fe  0.30546989  0.92842704  0.21644806     1.54400
O70         O  0.28179565  0.89927415  0.20266223    -0.82100
O71         O  0.36390446  0.95490101  0.21960734    -0.80400
O72         O  0.30458227  0.86962941  0.17348564    -0.84600
O73         O  0.32752143  0.87664552  0.26222318    -0.79400
O74         O  0.29653345  0.94393052  0.15614233    -0.81200
O75         O  0.38958286  0.91267467  0.18623957    -0.83900
C76         C  0.32133011  0.89342147  0.28939700     0.96800
C77         C  0.28379698  0.87866584  0.18332735     1.04300
O78         O  0.33495879  0.91265201  0.19256422    -1.12900
O79         O  0.35726973  0.91250498  0.10782673    -0.75400
O80         O  0.35183761  0.87420484  0.13262374    -0.78800
O81         O  0.31367617  0.91442964  0.27755117    -0.79500
C82         C  0.35566466  0.88947179  0.10158833     0.95700
O83         O  0.37509740  0.87984591  0.22096169    -0.77500
O84         O  0.33426876  0.95707781  0.13876320    -0.82700
C85         C  0.34660537  0.96704204  0.23734834     0.98300
C86         C  0.31096245  0.95805974  0.13496554     1.04300
O87         O  0.32418101  0.96030069  0.23443328    -0.78300
C88         C  0.39279538  0.89382980  0.20999921     1.02600
Fe89       Fe  0.68681472  0.15855044  0.19634817     1.65800
Fe90       Fe  0.66881203  0.10194653  0.16203284     1.73200
Fe91       Fe  0.72136765  0.10818128  0.22474042     1.54400
O92         O  0.74626367  0.13502936  0.20433571    -0.82100
O93         O  0.66835476  0.07434991  0.20852013    -0.80400
O94         O  0.72348206  0.16769641  0.18930970    -0.84600
O95         O  0.68936089  0.15850527  0.26374730    -0.79400
O96         O  0.73099263  0.08713675  0.16988995    -0.81200
O97         O  0.63842167  0.11651936  0.19352408    -0.83900
C98         C  0.70013673  0.14549184  0.29258478     0.96800
C99         C  0.74424677  0.15732756  0.19291421     1.04300
O100        O  0.69248683  0.12281050  0.19429742    -1.12900
O101        O  0.66529906  0.12643743  0.11019762    -0.75400
O102        O  0.68365486  0.16152032  0.12909904    -0.78800
O103        O  0.71367902  0.12718551  0.28280317    -0.79500
C104        C  0.67274653  0.14798138  0.10114630     0.95700
O105        O  0.64882008  0.15561121  0.20348100    -0.77500
O106        O  0.69694285  0.08499110  0.12787104    -0.82700
C107        C  0.68223790  0.06737305  0.23965175     0.98300
C108        C  0.71937410  0.07981847  0.13567857     1.04300
O109        O  0.70180249  0.07876740  0.25019078    -0.78300
C110        C  0.63300734  0.13837494  0.20414594     1.02600
Fe111      Fe  0.87203397  0.34455674  0.19362681     1.65800
Fe112      Fe  0.92774632  0.36383933  0.15679217     1.73200
Fe113      Fe  0.92399185  0.31224693  0.22216739     1.54400
O114        O  0.90629879  0.32133999  0.28129921    -0.82100
O115        O  0.94509771  0.33577567  0.12360355    -0.80400
O116        O  0.87294241  0.34246285  0.26069042    -0.84600
O117        O  0.86400451  0.30799872  0.18708789    -0.79400
O118        O  0.95401562  0.33262715  0.24385599    -0.81200
O119        O  0.90260786  0.36592897  0.10558119    -0.83900
C120        C  0.87463573  0.28765407  0.19285508     0.96800
C121        C  0.88714923  0.33397883  0.29017813     1.04300
O122        O  0.90802659  0.34004740  0.19078103    -1.12900
O123        O  0.91252400  0.39394397  0.18748092    -0.75400
O124        O  0.87392908  0.38241992  0.20072648    -0.78800
O125        O  0.89688593  0.28633690  0.20572776    -0.79500
C126        C  0.89076248  0.39866217  0.20008805     0.95700
O127        O  0.86812943  0.34694064  0.12657801    -0.77500
O128        O  0.95583817  0.36607225  0.20221505    -0.82700
C129        C  0.95045881  0.31347209  0.13129024     0.98300
C130        C  0.96418298  0.35267903  0.23277138     1.04300
O131        O  0.94373485  0.30196199  0.16597281    -0.78300
C132        C  0.88115924  0.35764684  0.09784236     1.02600
Fe133      Fe  0.87219789  0.68839531  0.84705891     1.65800
Fe134      Fe  0.92873596  0.67289719  0.88429379     1.73200
Fe135      Fe  0.92204727  0.72347408  0.81733052     1.54400
O136        O  0.90216381  0.71540640  0.76000035    -0.82100
O137        O  0.94388824  0.70217873  0.91745450    -0.80400
O138        O  0.87283888  0.68864180  0.77967162    -0.84600
O139        O  0.86230914  0.72456839  0.84994401    -0.79400
O140        O  0.95110928  0.70338148  0.79156668    -0.81200
O141        O  0.90334621  0.66933166  0.93497738    -0.83900
C142        C  0.87253865  0.74543810  0.84831609     0.96800
C143        C  0.88481698  0.70042702  0.75060133     1.04300
O144        O  0.90778407  0.69503508  0.84945934    -1.12900
O145        O  0.91562115  0.64135758  0.85424370    -0.75400
O146        O  0.87626733  0.65079412  0.84392519    -0.78800
O147        O  0.89521860  0.74805650  0.83893592    -0.79500
C148        C  0.89372537  0.63535399  0.84411842     0.95700
O149        O  0.86858232  0.68761843  0.91446076    -0.77500
O150        O  0.95724552  0.67297059  0.83922143    -0.82700
C151        C  0.95000006  0.72391848  0.90693636     0.98300
C152        C  0.96346810  0.68518378  0.80538806     1.04300
O153        O  0.94395533  0.73402080  0.87064257    -0.78300
C154        C  0.88175154  0.67706175  0.94316933     1.02600
Fe155      Fe  0.68440752  0.87504040  0.84925403     1.65800
Fe156      Fe  0.66972927  0.93123106  0.89110504     1.73200
Fe157      Fe  0.72087023  0.92505488  0.82468101     1.54400
O158        O  0.74458108  0.89653323  0.84091294    -0.82100
O159        O  0.66683231  0.95802084  0.84306296    -0.80400
O160        O  0.72054555  0.86486490  0.85795011    -0.84600
O161        O  0.68813067  0.87635188  0.78254764    -0.79400
O162        O  0.73300447  0.94388253  0.88050941    -0.81200
O163        O  0.63724436  0.91627506  0.86660418    -0.83900
C164        C  0.69816672  0.89025380  0.75430936     0.96800
C165        C  0.74169662  0.87443626  0.85315958     1.04300
O166        O  0.69174099  0.91048459  0.85511631    -1.12900
O167        O  0.67050849  0.90686982  0.94346765    -0.75400
O168        O  0.67942281  0.87001503  0.91533276    -0.78800
O169        O  0.71149696  0.90864099  0.76475468    -0.79500
C170        C  0.67418207  0.88395203  0.94740096     0.95700
O171        O  0.64698407  0.87960330  0.83992626    -0.77500
O172        O  0.69878784  0.94936910  0.92042630    -0.82700
C173        C  0.68149519  0.96618463  0.81381995     0.98300
C174        C  0.72158337  0.95286649  0.91345217     1.04300
O175        O  0.70182199  0.95586880  0.80456699    -0.78300
C176        C  0.63127361  0.89614183  0.84832785     1.02600
Fe177      Fe  0.37092418  0.19123856  0.34696851     1.65800
Fe178      Fe  0.42655725  0.17238989  0.38396783     1.73200
Fe179      Fe  0.42273325  0.22440815  0.31954325     1.54400
O180        O  0.40393193  0.21730929  0.26110144    -0.82100
O181        O  0.44390648  0.20024662  0.41798325    -0.80400
O182        O  0.37190094  0.19348303  0.27971522    -0.84600
O183        O  0.36273262  0.22765286  0.35300746    -0.79400
O184        O  0.45198365  0.20372362  0.29512084    -0.81200
O185        O  0.40129885  0.16964615  0.43471043    -0.83900
C186        C  0.37347783  0.24815433  0.34935243     0.96800
C187        C  0.38530137  0.20413756  0.25117806     1.04300
O188        O  0.40683707  0.19617791  0.35018077    -1.12900
O189        O  0.41160370  0.14204577  0.35292328    -0.75400
O190        O  0.37303981  0.15355537  0.34041342    -0.78800
O191        O  0.39608763  0.25001351  0.33875833    -0.79500
C192        C  0.38967017  0.13725082  0.34125115     0.95700
O193        O  0.36691190  0.18867034  0.41417393    -0.77500
O194        O  0.45468608  0.17111438  0.33879155    -0.82700
C195        C  0.45033668  0.22215448  0.40923144     0.98300
C196        C  0.46255555  0.18404874  0.30709895     1.04300
O197        O  0.44374038  0.23363083  0.37459879    -0.78300
C198        C  0.37982614  0.17765536  0.44270602     1.02600
Fe199      Fe  0.18677543  0.37955485  0.34294181     1.65800
Fe200      Fe  0.17084078  0.43629051  0.37884360     1.73200
Fe201      Fe  0.22263080  0.42907880  0.31833214     1.54400
O202        O  0.24509573  0.39827296  0.32822444    -0.82100
O203        O  0.16615375  0.45882800  0.32520444    -0.80400
O204        O  0.22182734  0.37048303  0.36206847    -0.84600
O205        O  0.19633969  0.37830702  0.27661929    -0.79400
O206        O  0.23532531  0.44428207  0.37692429    -0.81200
O207        O  0.13895051  0.41780792  0.35980391    -0.83900
C208        C  0.20252071  0.39441708  0.24826388     0.96800
C209        C  0.24256115  0.37782404  0.34801477     1.04300
O210        O  0.19343155  0.41484416  0.34690012    -1.12900
O211        O  0.17410916  0.41527412  0.43478871    -0.75400
O212        O  0.17624005  0.37693434  0.40856868    -0.78800
O213        O  0.21101090  0.41541973  0.25863344    -0.79500
C214        C  0.17404448  0.39215546  0.44022064     0.95700
O215        O  0.15080722  0.38430120  0.32365453    -0.77500
O216        O  0.19927922  0.45836225  0.40195196    -0.82700
C217        C  0.18298289  0.47006631  0.30427668     0.98300
C218        C  0.22273092  0.45848296  0.40144902     1.04300
O219        O  0.20506585  0.46217017  0.30302123    -0.78300
C220        C  0.13418337  0.39892456  0.33661928     1.02600
Fe221      Fe  0.84043145  0.37713837  0.69625558     1.65800
Fe222      Fe  0.85822974  0.43370982  0.66315943     1.73200
Fe223      Fe  0.80581500  0.42729976  0.72121219     1.54400
O224        O  0.78259167  0.39747173  0.70848904    -0.82100
O225        O  0.86370085  0.45464325  0.71876010    -0.80400
O226        O  0.80536202  0.36920902  0.67489802    -0.84600
O227        O  0.82983003  0.37538647  0.76211058    -0.79400
O228        O  0.79450332  0.44322139  0.66244869    -0.81200
O229        O  0.88888818  0.41384407  0.68069242    -0.83900
C230        C  0.82370298  0.39129795  0.79097859     0.96800
C231        C  0.78466996  0.37721186  0.68785559     1.04300
O232        O  0.83479040  0.41253377  0.69344208    -1.12900
O233        O  0.85421620  0.41377781  0.60612153    -0.75400
O234        O  0.85205714  0.37518935  0.63101203    -0.78800
O235        O  0.81593714  0.41258497  0.78100347    -0.79500
C236        C  0.85451818  0.39070925  0.59995110     0.95700
O237        O  0.87624723  0.38093392  0.71760118    -0.77500
O238        O  0.83120809  0.45730547  0.64088419    -0.82700
C239        C  0.84709100  0.46624181  0.73939953     0.98300
C240        C  0.80782136  0.45736725  0.63909175     1.04300
O241        O  0.82456047  0.45952574  0.73871287    -0.78300
C242        C  0.89317300  0.39515136  0.70419494     1.02600
Fe243      Fe  0.65635260  0.18910465  0.70177379     1.65800
Fe244      Fe  0.60035557  0.17004534  0.66347211     1.73200
Fe245      Fe  0.60489157  0.22384576  0.71960532     1.54400
O246        O  0.61758813  0.21457294  0.78137831    -0.82100
O247        O  0.57980107  0.19705082  0.63278383    -0.80400
O248        O  0.65501387  0.19868703  0.76811496    -0.84600
O249        O  0.66533450  0.22425396  0.68315271    -0.79400
O250        O  0.57191745  0.20632616  0.73441688    -0.81200
O251        O  0.62349170  0.17083707  0.60989039    -0.83900
C252        C  0.65623052  0.24498180  0.69244134     0.96800
C253        C  0.63804352  0.20578046  0.79422076     1.04300
O254        O  0.62065107  0.19429797  0.69479523    -1.12900
O255        O  0.61813231  0.13953157  0.68917399    -0.75400
O256        O  0.65276884  0.15292818  0.72035591    -0.78800
O257        O  0.63486231  0.24714522  0.70908404    -0.79500
C258        C  0.63793317  0.13575169  0.71042355     0.95700
O259        O  0.66114173  0.17879281  0.63659135    -0.77500
O260        O  0.57507822  0.16729953  0.71414065    -0.82700
C261        C  0.57899741  0.22037078  0.63183824     0.98300
C262        C  0.56356054  0.18454448  0.73323280     1.04300
O263        O  0.59053416  0.23400442  0.65910081    -0.78300
C264        C  0.64658895  0.17349401  0.60507458     1.02600
Fe265      Fe  0.65606942  0.84271514  0.34749532     1.65800
Fe266      Fe  0.60018681  0.86306733  0.38052542     1.73200
Fe267      Fe  0.60427996  0.81022072  0.32210333     1.54400
O268        O  0.61925768  0.81985640  0.26185324    -0.82100
O269        O  0.57664070  0.83658693  0.40541201    -0.80400
O270        O  0.65712203  0.83162271  0.28258335    -0.84600
O271        O  0.66201534  0.80758680  0.36955468    -0.79400
O272        O  0.57211782  0.82921076  0.30634139    -0.81200
O273        O  0.62100137  0.85988128  0.43707237    -0.83900
C274        C  0.65354103  0.78745260  0.35493732     0.96800
C275        C  0.64122684  0.82656843  0.25305375     1.04300
O276        O  0.62024933  0.83873082  0.35006773    -1.12900
O277        O  0.62066070  0.89292836  0.35916220    -0.75400
O278        O  0.65416033  0.87855450  0.32561226    -0.78800
O279        O  0.63352114  0.78625889  0.33323802    -0.79500
C280        C  0.64009824  0.89614141  0.33650627     0.95700
O281        O  0.65924511  0.85439318  0.41191156    -0.77500
O282        O  0.57765097  0.86803710  0.32666797    -0.82700
C283        C  0.57516879  0.81329338  0.40587571     0.98300
C284        C  0.56514444  0.85147405  0.30746383     1.04300
O285        O  0.58819301  0.79953337  0.38119441    -0.78300
C286        C  0.64413154  0.85839129  0.44302997     1.02600
Fe287      Fe  0.83617167  0.65998891  0.34094917     1.65800
Fe288      Fe  0.85829308  0.60526837  0.37602041     1.73200
Fe289      Fe  0.80431229  0.60705975  0.32027336     1.54400
O290        O  0.77962484  0.63598700  0.33117177    -0.82100
O291        O  0.86250090  0.58135162  0.32407696    -0.80400
O292        O  0.80120008  0.66550107  0.36407988    -0.84600
O293        O  0.82448844  0.65956191  0.27548576    -0.79400
O294        O  0.79454290  0.59175043  0.38023543    -0.81200
O295        O  0.88751157  0.62539453  0.35007778    -0.83900
C296        C  0.82016193  0.64229456  0.24809938     0.96800
C297        C  0.78088195  0.65631773  0.35181838     1.04300
O298        O  0.83294532  0.62418068  0.34597920    -1.12900
O299        O  0.85625251  0.62720734  0.43087484    -0.75400
O300        O  0.84809404  0.66468830  0.40554188    -0.78800
O301        O  0.81375537  0.62077545  0.25955392    -0.79500
C302        C  0.85330078  0.65005276  0.43676299     0.95700
O303        O  0.87196302  0.65861010  0.31797472    -0.77500
O304        O  0.83221629  0.58280877  0.40589211    -0.82700
C305        C  0.84604492  0.56859921  0.30512265     0.98300
C306        C  0.80880442  0.58094329  0.40728907     1.04300
O307        O  0.82356420  0.57510490  0.30471721    -0.78300
C308        C  0.89000652  0.64475600  0.32709594     1.02600
Fe309      Fe  0.36878409  0.84924105  0.69238522     1.65800
Fe310      Fe  0.42506231  0.86943450  0.65945299     1.73200
Fe311      Fe  0.42056516  0.81661901  0.72106783     1.54400
O312        O  0.40164759  0.82423120  0.77929280    -0.82100
O313        O  0.44313311  0.84220075  0.62570304    -0.80400
O314        O  0.36864954  0.84633230  0.75954390    -0.84600
O315        O  0.36102898  0.81268223  0.68386554    -0.79400
O316        O  0.45006255  0.83684068  0.74573436    -0.81200
O317        O  0.40075840  0.87204181  0.60687491    -0.83900
C318        C  0.37182668  0.79232824  0.68858381     0.96800
C319        C  0.38250201  0.83677544  0.78850823     1.04300
O320        O  0.40488421  0.84495529  0.69094047    -1.12900
O321        O  0.40902549  0.89872452  0.69061593    -0.75400
O322        O  0.37025823  0.88694276  0.70116295    -0.78800
O323        O  0.39399663  0.79090208  0.70173359    -0.79500
C324        C  0.38704969  0.90319628  0.70212094     0.95700
O325        O  0.36608803  0.85253817  0.62523885    -0.77500
O326        O  0.45248164  0.87119583  0.70668955    -0.82700
C327        C  0.44825652  0.81970110  0.63171066     0.98300
C328        C  0.46042569  0.85713596  0.73668464     1.04300
O329        O  0.44121439  0.80747121  0.66533895    -0.78300
C330        C  0.37953542  0.86362454  0.59752428     1.02600
Fe331      Fe  0.18604806  0.66120379  0.68643709     1.65800
Fe332      Fe  0.16827640  0.60535142  0.65149161     1.73200
Fe333      Fe  0.22036231  0.61102670  0.71548077     1.54400
O334        O  0.24558503  0.63815207  0.69645071    -0.82100
O335        O  0.16874096  0.57637444  0.69498582    -0.80400
O336        O  0.22252289  0.67090957  0.68425500    -0.84600
O337        O  0.18614419  0.66013016  0.75351776    -0.79400
O338        O  0.23028577  0.59066342  0.65933807    -0.81200
O339        O  0.13806767  0.61866972  0.68550467    -0.83900
C340        C  0.19674710  0.64736869  0.78292993     0.96800
C341        C  0.24334773  0.66072378  0.68700751     1.04300
O342        O  0.19180934  0.62570306  0.68457504    -1.12900
O343        O  0.16367326  0.63111450  0.60195352    -0.75400
O344        O  0.18587791  0.66414853  0.61923467    -0.78800
O345        O  0.21155119  0.62981427  0.77393483    -0.79500
C346        C  0.17323549  0.65170345  0.59212813     0.95700
O347        O  0.14787328  0.65819715  0.68854003    -0.77500
O348        O  0.19676279  0.59045736  0.61560336    -0.82700
C349        C  0.18177569  0.56941671  0.72725444     0.98300
C350        C  0.21914536  0.58498293  0.62345571     1.04300
O351        O  0.20066205  0.58128408  0.73994590    -0.78300
C352        C  0.13228032  0.64089335  0.69234878     1.02600
C353        C  0.35719566  0.76980029  0.67905055    -0.01700
C354        C  0.33798391  0.77099994  0.64817996    -0.09700
C355        C  0.32109193  0.75180999  0.64355703    -0.18500
C356        C  0.32247192  0.73070060  0.67051317     0.03900
C357        C  0.34296249  0.72868091  0.69962996     0.18000
C358        C  0.36021830  0.74809935  0.70342914    -0.20000
C359        C  0.34546765  0.70773815  0.72604170    -0.21200
C360        C  0.32755521  0.68928133  0.72557169    -0.19800
C361        C  0.30644394  0.69139899  0.69915516     0.19400
C362        C  0.30378591  0.71203769  0.67080510     0.01600
C363        C  0.28191428  0.71374627  0.64562291    -0.14500
C364        C  0.26307187  0.69645145  0.64999302    -0.12200
C365        C  0.26532104  0.67648409  0.67882424     0.01100
C366        C  0.28745077  0.67361249  0.70233972    -0.24400
H367        H  0.33556794  0.78728893  0.62817203     0.09100
H368        H  0.30682168  0.75438751  0.61928708     0.12700
H369        H  0.37510072  0.74690431  0.72723722     0.11400
H370        H  0.36113210  0.70586353  0.74799522     0.12600
H371        H  0.32985601  0.67360248  0.74713311     0.11600
H372        H  0.27833140  0.72871124  0.62338412     0.08700
H373        H  0.24626897  0.69904037  0.63120704     0.12000
H374        H  0.28930393  0.65836529  0.72503806     0.13800
C375        C  0.66826884  0.76492838  0.36187418    -0.01700
C376        C  0.68544312  0.76397787  0.39634768    -0.09700
C377        C  0.70182603  0.74440225  0.39996465    -0.18500
C378        C  0.70195563  0.72518177  0.36843471     0.03900
C379        C  0.68385259  0.72569471  0.33444815     0.18000
C380        C  0.66705933  0.74530626  0.33178506    -0.20000
C381        C  0.68325683  0.70714104  0.30233351    -0.21200
C382        C  0.70085907  0.68858779  0.30218249    -0.19800
C383        C  0.71953586  0.68811457  0.33411348     0.19400
C384        C  0.72002819  0.70610965  0.36829124     0.01600
C385        C  0.73926653  0.70485662  0.39970670    -0.14500
C386        C  0.75813747  0.68770711  0.39544616    -0.12200
C387        C  0.75833822  0.67084838  0.36042172     0.01100
C388        C  0.73842580  0.67048206  0.33085384    -0.24400
H389        H  0.68657696  0.77876858  0.42027467     0.09100
H390        H  0.71459606  0.74527092  0.42717810     0.12700
H391        H  0.65390803  0.74593021  0.30482034     0.11400
H392        H  0.66944411  0.70732241  0.27645330     0.12600
H393        H  0.70025121  0.67488786  0.27616901     0.11600
H394        H  0.74078368  0.71737947  0.42717215     0.08700
H395        H  0.77315583  0.68815383  0.41905817     0.12000
H396        H  0.73847272  0.65755354  0.30354866     0.13800
C397        C  0.46378225  0.80811466  0.59780257    -0.01700
C398        C  0.48595965  0.79674607  0.60925554    -0.09700
C399        C  0.50379289  0.79187901  0.57691955    -0.18500
C400        C  0.49980483  0.79843793  0.53219888     0.03900
C401        C  0.47625602  0.80791120  0.52062961     0.18000
C402        C  0.45863193  0.81263904  0.55332871    -0.20000
C403        C  0.47090176  0.81411641  0.47688823    -0.21200
C404        C  0.48898189  0.81270372  0.44461490    -0.19800
C405        C  0.51289308  0.80534350  0.45549839     0.19400
C406        C  0.51861699  0.79742273  0.49907736     0.01600
C407        C  0.54333015  0.79062162  0.50810353    -0.14500
C408        C  0.56184162  0.79362917  0.47622730    -0.12200
C409        C  0.55606225  0.80282983  0.43446309     0.01100
C410        C  0.53150899  0.80764010  0.42373205    -0.24400
H411        H  0.49021361  0.79318069  0.64362175     0.09100
H412        H  0.52083583  0.78390091  0.58813035     0.12700
H413        H  0.44134289  0.82133642  0.54451782     0.11400
H414        H  0.45286072  0.82100852  0.46788614     0.12600
H415        H  0.48453429  0.81853820  0.41133433     0.11600
H416        H  0.54914026  0.78428311  0.54014820     0.08700
H417        H  0.58088064  0.79025066  0.48511194     0.12000
H418        H  0.52721306  0.81515505  0.39144679     0.13800
C419        C  0.67165000  0.26720320  0.68491121    -0.01700
C420        C  0.66661280  0.28932444  0.70687160    -0.09700
C421        C  0.68286746  0.30930176  0.70394609    -0.18500
C422        C  0.70483405  0.30777473  0.67879190     0.03900
C423        C  0.70917176  0.28570052  0.65485743     0.18000
C424        C  0.69269340  0.26584136  0.65806106    -0.20000
C425        C  0.73038445  0.28318748  0.62895138    -0.21200
C426        C  0.74805577  0.30167010  0.62788163    -0.19800
C427        C  0.74498530  0.32312686  0.65273960     0.19400
C428        C  0.72309294  0.32685392  0.67771411     0.01600
C429        C  0.72097878  0.34909109  0.70174086    -0.14500
C430        C  0.74044199  0.36605040  0.70317207    -0.12200
C431        C  0.76254467  0.36153343  0.68054251     0.01100
C432        C  0.76423297  0.34040232  0.65412720    -0.24400
H433        H  0.65046441  0.29094410  0.72772747     0.09100
H434        H  0.67802170  0.32547078  0.72255992     0.12700
H435        H  0.69667343  0.24895539  0.64042877     0.11400
H436        H  0.73365277  0.26651559  0.61025035     0.12600
H437        H  0.76459195  0.29884947  0.60841644     0.11600
H438        H  0.70482090  0.35356620  0.72082020     0.08700
H439        H  0.73850418  0.38229495  0.72357147     0.12000
H440        H  0.78106565  0.33679722  0.63591400     0.13800
C441        C  0.79669342  0.47576593  0.61000474    -0.01700
C442        C  0.78689642  0.46916421  0.56892235    -0.09700
C443        C  0.78333574  0.48698426  0.53617488    -0.18500
C444        C  0.79006979  0.51183824  0.54365456     0.03900
C445        C  0.79842564  0.51841122  0.58667544     0.18000
C446        C  0.80138028  0.50046737  0.61926295    -0.20000
C447        C  0.80554392  0.54254135  0.59618838    -0.21200
C448        C  0.80628236  0.56006183  0.56307952    -0.19800
C449        C  0.79969639  0.55391065  0.51979397     0.19400
C450        C  0.79052172  0.53003938  0.50957813     0.01600
C451        C  0.78368840  0.52517878  0.46519589    -0.14500
C452        C  0.78775634  0.54263556  0.43200543    -0.12200
C453        C  0.79852098  0.56531607  0.44223613     0.01100
C454        C  0.80366098  0.57113751  0.48621816    -0.24400
H455        H  0.78354383  0.45001712  0.56114782     0.09100
H456        H  0.77657290  0.48056919  0.50469182     0.12700
H457        H  0.80926566  0.50543729  0.65104234     0.11400
H458        H  0.81167771  0.54763763  0.62906190     0.12600
H459        H  0.81294254  0.57832720  0.57106676     0.11600
H460        H  0.77607233  0.50777518  0.45491764     0.08700
H461        H  0.78387173  0.53785117  0.39793046     0.12000
H462        H  0.81209521  0.58872777  0.49394558     0.13800
C463        C  0.23177212  0.57021771  0.58936661    -0.01700
C464        C  0.24377391  0.54842942  0.60074831    -0.09700
C465        C  0.24907577  0.53075353  0.56841127    -0.18500
C466        C  0.24232409  0.53447435  0.52371096     0.03900
C467        C  0.23278442  0.55786464  0.51194693     0.18000
C468        C  0.22757954  0.57536713  0.54469270    -0.20000
C469        C  0.22672574  0.56302491  0.46802687    -0.21200
C470        C  0.22783140  0.54476126  0.43604933    -0.19800
C471        C  0.23461689  0.52085304  0.44747255     0.19400
C472        C  0.24286657  0.51544079  0.49099209     0.01600
C473        C  0.24908579  0.49075154  0.50063348    -0.14500
C474        C  0.24474099  0.47197489  0.46978755    -0.12200
C475        C  0.23484532  0.47745247  0.42836395     0.01100
C476        C  0.23108808  0.50195241  0.41661663    -0.24400
H477        H  0.24732206  0.54420901  0.63512333     0.09100
H478        H  0.25738860  0.51394659  0.57964285     0.12700
H479        H  0.21857647  0.59240748  0.53575191     0.11400
H480        H  0.21995073  0.58098713  0.45874880     0.12600
H481        H  0.22188357  0.54901453  0.40274018     0.11600
H482        H  0.25575265  0.48519329  0.53261053     0.08700
H483        H  0.24750981  0.45303931  0.47939502     0.12000
H484        H  0.22319419  0.50606839  0.38451556     0.13800
C485        C  0.35808524  0.27022366  0.35688331    -0.01700
C486        C  0.33878605  0.26887635  0.38756401    -0.09700
C487        C  0.32095027  0.28718394  0.39007899    -0.18500
C488        C  0.32147924  0.30753787  0.36121801     0.03900
C489        C  0.34164923  0.30945328  0.33128637     0.18000
C490        C  0.35988592  0.29098985  0.32970838    -0.20000
C491        C  0.34295283  0.32931898  0.30205797    -0.21200
C492        C  0.32446189  0.34704610  0.30129774    -0.19800
C493        C  0.30410786  0.34539907  0.32968923     0.19400
C494        C  0.30241368  0.32566939  0.36025572     0.01600
C495        C  0.28136433  0.32459806  0.38777151    -0.14500
C496        C  0.26261689  0.34195562  0.38440694    -0.12200
C497        C  0.26407275  0.36124182  0.35392000     0.01100
C498        C  0.28513555  0.36304234  0.32703296    -0.24400
H499        H  0.33705771  0.25307542  0.40905618     0.09100
H500        H  0.30665587  0.28446852  0.41430384     0.12700
H501        H  0.37460177  0.29205477  0.30552181     0.11400
H502        H  0.35821998  0.33097775  0.27913481     0.12600
H503        H  0.32593173  0.36199086  0.27786359     0.11600
H504        H  0.27853919  0.31032727  0.41182786     0.08700
H505        H  0.24663720  0.34002785  0.40562470     0.12000
H506        H  0.28638150  0.37767156  0.30290257     0.13800
C507        C  0.46850643  0.23334399  0.43892415    -0.01700
C508        C  0.46232590  0.23902354  0.48254441    -0.09700
C509        C  0.48079142  0.24289715  0.51408209    -0.18500
C510        C  0.50601198  0.23990629  0.50304892     0.03900
C511        C  0.51201451  0.23500595  0.45812611     0.18000
C512        C  0.49330188  0.23251613  0.42644098    -0.20000
C513        C  0.53646603  0.23063571  0.44565979    -0.21200
C514        C  0.55493915  0.22923169  0.47733831    -0.19800
C515        C  0.54950089  0.23289806  0.52204754     0.19400
C516        C  0.52523867  0.23955522  0.53535515     0.01600
C517        C  0.52107286  0.24414956  0.58079055    -0.14500
C518        C  0.53958610  0.24001304  0.61196986    -0.12200
C519        C  0.56267647  0.23136413  0.59880664     0.01100
C520        C  0.56783997  0.22856999  0.55382931    -0.24400
H521        H  0.44316663  0.23925483  0.49269569     0.09100
H522        H  0.47467933  0.24652939  0.54733024     0.12700
H523        H  0.49797044  0.22743950  0.39275731     0.11400
H524        H  0.54112649  0.22697049  0.41143988     0.12600
H525        H  0.57346485  0.22453008  0.46694158     0.11600
H526        H  0.50351765  0.25019369  0.59336563     0.08700
H527        H  0.53534473  0.24206102  0.64678036     0.12000
H528        H  0.58575692  0.22172086  0.54379398     0.13800
C529        C  0.67541279  0.98947778  0.79131642    -0.01700
C530        C  0.69443541  0.00545782  0.77876265    -0.09700
C531        C  0.68923853  0.02888063  0.76277366    -0.18500
C532        C  0.66464313  0.03706883  0.75837580     0.03900
C533        C  0.64538322  0.02012130  0.76798159     0.18000
C534        C  0.65088361  0.99674805  0.78504227    -0.20000
C535        C  0.62075966  0.02680305  0.76129848    -0.21200
C536        C  0.61479620  0.05022193  0.74648313    -0.19800
C537        C  0.63324884  0.06782208  0.73939111     0.19400
C538        C  0.65846059  0.06152013  0.74543507     0.01600
C539        C  0.67631924  0.08022439  0.73990916    -0.14500
C540        C  0.66942105  0.10414446  0.72925995    -0.12200
C541        C  0.64459678  0.11028244  0.72286536     0.01100
C542        C  0.62660772  0.09187748  0.72732811    -0.24400
H543        H  0.71354132  0.00019623  0.78298337     0.09100
H544        H  0.70488770  0.04017301  0.75431828     0.12700
H545        H  0.63605866  0.98429191  0.79392235     0.11400
H546        H  0.60598361  0.01386975  0.76785014     0.12600
H547        H  0.59554523  0.05482637  0.74181917     0.11600
H548        H  0.69575269  0.07713308  0.74468662     0.08700
H549        H  0.68372830  0.11791466  0.72555762     0.12000
H550        H  0.60734178  0.09643468  0.72256386     0.13800
C551        C  0.64877064  0.83041148  0.20697331    -0.01700
C552        C  0.63724902  0.81821356  0.17190315    -0.09700
C553        C  0.64320126  0.82418957  0.12830180    -0.18500
C554        C  0.66031997  0.84319271  0.11883926     0.03900
C555        C  0.67217084  0.85509494  0.15485562     0.18000
C556        C  0.66676371  0.84822315  0.19812271    -0.20000
C557        C  0.68844266  0.87467189  0.14777918    -0.21200
C558        C  0.69217713  0.88372961  0.10556524    -0.19800
C559        C  0.68029215  0.87290843  0.06947019     0.19400
C560        C  0.66509902  0.85177534  0.07526117     0.01600
C561        C  0.65486759  0.84061236  0.03724833    -0.14500
C562        C  0.65839069  0.85091416  0.99565744    -0.12200
C563        C  0.67182840  0.87269367  0.99092797     0.01100
C564        C  0.68311993  0.88340632  0.02761776    -0.24400
H565        H  0.62336933  0.80430895  0.17820675     0.09100
H566        H  0.63331105  0.81439259  0.10288218     0.12700
H567        H  0.67556493  0.85796665  0.22520204     0.11400
H568        H  0.69757128  0.88368458  0.17528206     0.12600
H569        H  0.70413300  0.89952849  0.10120151     0.11600
H570        H  0.64407407  0.82398945  0.03856492     0.08700
H571        H  0.64998833  0.84220040  0.96713596     0.12000
H572        H  0.69414667  0.89990135  0.02347085     0.13800
C573        C  0.69257375  0.88494043  0.70762665    -0.01700
C574        C  0.70807821  0.89236016  0.67320865    -0.09700
C575        C  0.70182647  0.88714821  0.62928306    -0.18500
C576        C  0.67953274  0.87476677  0.61873635     0.03900
C577        C  0.66376626  0.86782973  0.65404366     0.18000
C578        C  0.67054385  0.87262020  0.69764890    -0.20000
C579        C  0.64100811  0.85656812  0.64582195    -0.21200
C580        C  0.63313686  0.85256518  0.60288477    -0.19800
C581        C  0.64812768  0.85917181  0.56729784     0.19400
C582        C  0.67187322  0.86965526  0.57457547     0.01600
C583        C  0.68675924  0.87463660  0.53730803    -0.14500
C584        C  0.67789775  0.87046885  0.49465641    -0.12200
C585        C  0.65394474  0.86151061  0.48793682     0.01100
C586        C  0.63932609  0.85554090  0.52435206    -0.24400
H587        H  0.72509564  0.90206933  0.68026776     0.09100
H588        H  0.71449117  0.89350414  0.60434372     0.12700
H589        H  0.65811966  0.86728618  0.72406801     0.11400
H590        H  0.62896680  0.85129436  0.67279900     0.12600
H591        H  0.61516583  0.84431088  0.59747644     0.11600
H592        H  0.70528942  0.88168184  0.54005828     0.08700
H593        H  0.68964346  0.87482797  0.46677765     0.12000
H594        H  0.62101803  0.84795687  0.51922760     0.13800
C595        C  0.60503384  0.89154787  0.83639764    -0.01700
C596        C  0.58840092  0.91097629  0.83096610    -0.09700
C597        C  0.56398331  0.90655987  0.81780675    -0.18500
C598        C  0.55527049  0.88237733  0.81013651     0.03900
C599        C  0.57191734  0.86272513  0.81784644     0.18000
C600        C  0.59646531  0.86745263  0.83024012    -0.20000
C601        C  0.56407224  0.83838572  0.81279704    -0.21200
C602        C  0.54012709  0.83304897  0.79949615    -0.19800
C603        C  0.52354416  0.85190428  0.78981768     0.19400
C604        C  0.53082904  0.87688537  0.79473565     0.01600
C605        C  0.51360504  0.89513468  0.78248429    -0.14500
C606        C  0.49052814  0.88875967  0.76487458    -0.12200
C607        C  0.48352792  0.86407726  0.76008469     0.01100
C608        C  0.49998201  0.84580952  0.77366943    -0.24400
H609        H  0.59441428  0.92975468  0.83604450     0.09100
H610        H  0.55233665  0.92240974  0.81401020     0.12700
H611        H  0.60896505  0.85221461  0.83527511     0.11400
H612        H  0.57659943  0.82332287  0.81902178     0.12600
H613        H  0.53472391  0.81398408  0.79569732     0.11600
H614        H  0.51777503  0.91446082  0.78467125     0.08700
H615        H  0.47819677  0.90322982  0.75440437     0.12000
H616        H  0.49495414  0.82666531  0.76934258     0.13800
C617        C  0.98667140  0.67837474  0.78255817    -0.01700
C618        C  0.00024354  0.69603674  0.75929860    -0.09700
C619        C  0.02351356  0.69051380  0.74209056    -0.18500
C620        C  0.03395790  0.66690222  0.74729533     0.03900
C621        C  0.01959133  0.64872883  0.76910682     0.18000
C622        C  0.99637713  0.65464696  0.78680251    -0.20000
C623        C  0.02861669  0.62482229  0.77371839    -0.21200
C624        C  0.05181477  0.61859807  0.75768375    -0.19800
C625        C  0.06681919  0.63624221  0.73743720     0.19400
C626        C  0.05815831  0.66069644  0.73208457     0.01600
C627        C  0.07435030  0.67798289  0.71273008    -0.14500
C628        C  0.09813328  0.67134965  0.69980640    -0.12200
C629        C  0.10661712  0.64723992  0.70503035     0.01100
C630        C  0.09066681  0.62967757  0.72333971    -0.24400
H631        H  0.99320619  0.71450901  0.75563255     0.09100
H632        H  0.03289592  0.70516956  0.72507296     0.12700
H633        H  0.98591688  0.64076012  0.80438614     0.11400
H634        H  0.01767793  0.61083081  0.79001360     0.12600
H635        H  0.05825605  0.59993627  0.76191090     0.11600
H636        H  0.06939104  0.69692367  0.70790783     0.08700
H637        H  0.10998767  0.68528540  0.68556899     0.12000
H638        H  0.09706686  0.61101100  0.72784031     0.13800
C639        C  0.85669969  0.76710083  0.85717425    -0.01700
C640        C  0.86283175  0.79060600  0.84188767    -0.09700
C641        C  0.84599600  0.81003404  0.84563331    -0.18500
C642        C  0.82237265  0.80641958  0.86469445     0.03900
C643        C  0.81688818  0.78279257  0.88202685     0.18000
C644        C  0.83398769  0.76368012  0.87851381    -0.20000
C645        C  0.79393869  0.77795345  0.90126140    -0.21200
C646        C  0.77570510  0.79572395  0.90170483    -0.19800
C647        C  0.78002958  0.81883915  0.88323106     0.19400
C648        C  0.80359621  0.82489220  0.86563250     0.01600
C649        C  0.80689079  0.84883658  0.84842376    -0.14500
C650        C  0.78714438  0.86536400  0.84610483    -0.12200
C651        C  0.76357407  0.85861666  0.86096543     0.01100
C652        C  0.76050467  0.83558931  0.88087899    -0.24400
H653        H  0.88030037  0.79378494  0.82548721     0.09100
H654        H  0.85167307  0.82744751  0.83213913     0.12700
H655        H  0.82914802  0.74569531  0.89122212     0.11400
H656        H  0.78978019  0.76001754  0.91485558     0.12600
H657        H  0.75785980  0.79112904  0.91561652     0.11600
H658        H  0.82434180  0.85508649  0.83555734     0.08700
H659        H  0.79016844  0.88316136  0.83114799     0.12000
H660        H  0.74253150  0.83026210  0.89339678     0.13800
C661        C  0.82501827  0.64686518  0.20125825    -0.01700
C662        C  0.81737003  0.66848731  0.18072235    -0.09700
C663        C  0.82492682  0.67381508  0.13762015    -0.18500
C664        C  0.84120704  0.65797589  0.11467808     0.03900
C665        C  0.84906178  0.63623543  0.13639075     0.18000
C666        C  0.84037781  0.63060241  0.17865111    -0.20000
C667        C  0.86627153  0.62064245  0.11660577    -0.21200
C668        C  0.87629014  0.62636111  0.07577705    -0.19800
C669        C  0.86875267  0.64739934  0.05321905     0.19400
C670        C  0.85065088  0.66323205  0.07170397     0.01600
C671        C  0.84283629  0.68353109  0.04626532    -0.14500
C672        C  0.85292951  0.68805317  0.00458322    -0.12200
C673        C  0.87135360  0.67280253  0.98744313     0.01100
C674        C  0.87916470  0.65255240  0.01197215    -0.24400
H675        H  0.80577117  0.68140255  0.19827973     0.09100
H676        H  0.81853987  0.69087623  0.12386971     0.12700
H677        H  0.84683624  0.61418187  0.19521542     0.11400
H678        H  0.87243879  0.60417415  0.13327109     0.12600
H679        H  0.88994168  0.61415868  0.06162405     0.11600
H680        H  0.82869754  0.69596652  0.05733205     0.08700
H681        H  0.84642140  0.70365250  0.98580951     0.12000
H682        H  0.89300309  0.64034306  0.99836562     0.13800
C683        C  0.87855072  0.69544000  0.70396718    -0.01700
C684        C  0.88362070  0.71236957  0.67043872    -0.09700
C685        C  0.87812034  0.70675986  0.62634488    -0.18500
C686        C  0.86785339  0.68370395  0.61452213     0.03900
C687        C  0.86290227  0.66666892  0.64892642     0.18000
C688        C  0.86789010  0.67279539  0.69288361    -0.20000
C689        C  0.85357332  0.64329318  0.63935907    -0.21200
C690        C  0.84970805  0.63607412  0.59599173    -0.19800
C691        C  0.85459306  0.65225056  0.56128690     0.19400
C692        C  0.86305099  0.67654303  0.56989576     0.01600
C693        C  0.86656807  0.69237318  0.53338456    -0.14500
C694        C  0.86287331  0.68400769  0.49014925    -0.12200
C695        C  0.85584278  0.65965469  0.48209986     0.01100
C696        C  0.85134211  0.64405254  0.51786641    -0.24400
H697        H  0.89182895  0.72999730  0.67832816     0.09100
H698        H  0.88265282  0.72056812  0.60221008     0.12700
H699        H  0.86420229  0.65941263  0.71856447     0.11400
H700        H  0.84977242  0.63028678  0.66556766     0.12600
H701        H  0.84301214  0.61763408  0.58953452     0.11600
H702        H  0.87219408  0.71125505  0.53718097     0.08700
H703        H  0.86610949  0.69646384  0.46289609     0.12000
H704        H  0.84527160  0.62533598  0.51187766     0.13800
C705        C  0.88784591  0.60957677  0.83196591    -0.01700
C706        C  0.90514054  0.59067870  0.83669296    -0.09700
C707        C  0.89912192  0.56646272  0.82506952    -0.18500
C708        C  0.87552401  0.56042971  0.80801623     0.03900
C709        C  0.85810447  0.57971603  0.80369733     0.18000
C710        C  0.86434306  0.60377998  0.81565142    -0.20000
C711        C  0.83450935  0.57504305  0.78700010    -0.21200
C712        C  0.82776920  0.55156710  0.77394838    -0.19800
C713        C  0.84447243  0.53217991  0.77716741     0.19400
C714        C  0.86859371  0.53618261  0.79436438     0.01600
C715        C  0.88476503  0.51584975  0.79601001    -0.14500
C716        C  0.87755891  0.49289213  0.77948910    -0.12200
C717        C  0.85388475  0.48933264  0.76200458     0.01100
C718        C  0.83730386  0.50891853  0.76193382    -0.24400
H719        H  0.92338411  0.59458531  0.84952521     0.09100
H720        H  0.91332642  0.55290806  0.82963458     0.12700
H721        H  0.85073489  0.61815599  0.81174890     0.11400
H722        H  0.82119382  0.58972133  0.78366537     0.12600
H723        H  0.80942297  0.54861655  0.76069330     0.11600
H724        H  0.90326298  0.51725944  0.80882349     0.08700
H725        H  0.89066263  0.47792286  0.77983607     0.12000
H726        H  0.81908531  0.50636881  0.74779313     0.13800
C727        C  0.98737545  0.36036742  0.25459533    -0.01700
C728        C  0.99323853  0.38530932  0.25923993    -0.09700
C729        C  0.01629143  0.39270390  0.27526846    -0.18500
C730        C  0.03456819  0.37524720  0.28614007     0.03900
C731        C  0.02837791  0.34994394  0.28161997     0.18000
C732        C  0.00486926  0.34279464  0.26676037    -0.20000
C733        C  0.04591449  0.33186967  0.29066355    -0.21200
C734        C  0.06969473  0.33832081  0.30323274    -0.19800
C735        C  0.07646174  0.36300567  0.30767846     0.19400
C736        C  0.05892938  0.38188903  0.30011612     0.01600
C737        C  0.06670459  0.40650692  0.30651351    -0.14500
C738        C  0.09096857  0.41203804  0.31897867    -0.12200
C739        C  0.10829690  0.39331816  0.32478159     0.01100
C740        C  0.10081601  0.36886171  0.31937127    -0.24400
H741        H  0.97998709  0.39920511  0.24989694     0.09100
H742        H  0.01948110  0.41219807  0.27756423     0.12700
H743        H  0.00060555  0.32346412  0.26250288     0.11400
H744        H  0.04133483  0.31257733  0.28720968     0.12600
H745        H  0.08295109  0.32386404  0.30929704     0.11600
H746        H  0.05447523  0.42187057  0.30224568     0.08700
H747        H  0.09632443  0.43107288  0.32326880     0.12000
H748        H  0.11401880  0.35424224  0.32465434     0.13800
C749        C  0.87060850  0.36138849  0.05401592    -0.01700
C750        C  0.86246479  0.34145411  0.02881667    -0.09700
C751        C  0.85259193  0.34517225  0.98678286    -0.18500
C752        C  0.85013905  0.36914840  0.96938860     0.03900
C753        C  0.85714222  0.38930925  0.99665531     0.18000
C754        C  0.86778544  0.38522682  0.03810408    -0.20000
C755        C  0.85355351  0.41342281  0.98240057    -0.21200
C756        C  0.84375782  0.41803625  0.94091537    -0.19800
C757        C  0.83813799  0.39865192  0.91220100     0.19400
C758        C  0.84126912  0.37390183  0.92589071     0.01600
C759        C  0.83644941  0.35508325  0.89476057    -0.14500
C760        C  0.82977648  0.36070998  0.85142739    -0.12200
C761        C  0.82711057  0.38515702  0.83804902     0.01100
C762        C  0.83053599  0.40397676  0.86906134    -0.24400
H763        H  0.86413011  0.32293463  0.04143921     0.09100
H764        H  0.84679186  0.32899507  0.96897603     0.12700
H765        H  0.87352228  0.40063990  0.05848469     0.11400
H766        H  0.85846923  0.42882714  0.00340386     0.12600
H767        H  0.84136881  0.43692800  0.93063873     0.11600
H768        H  0.83873646  0.33589655  0.90228349     0.08700
H769        H  0.82726485  0.34584726  0.82798774     0.12000
H770        H  0.82884238  0.42297089  0.85885504     0.13800
C771        C  0.85805056  0.38166750  0.55472233    -0.01700
C772        C  0.84808876  0.39475073  0.51942064    -0.09700
C773        C  0.85181168  0.38694281  0.47619795    -0.18500
C774        C  0.86609102  0.36585538  0.46686664     0.03900
C775        C  0.87663287  0.35292128  0.50289000     0.18000
C776        C  0.87213465  0.36063800  0.54644504    -0.20000
C777        C  0.89190380  0.33267473  0.49512748    -0.21200
C778        C  0.89710852  0.32509057  0.45216147    -0.19800
C779        C  0.88665836  0.33718772  0.41598971     0.19400
C780        C  0.87062169  0.35746419  0.42303639     0.01600
C781        C  0.85967328  0.36849729  0.38588357    -0.14500
C782        C  0.86487800  0.36026322  0.34358154    -0.12200
C783        C  0.88121869  0.34075579  0.33629846     0.01100
C784        C  0.89209142  0.32921016  0.37274297    -0.24400
H785        H  0.83723875  0.41111265  0.52531252     0.09100
H786        H  0.84366904  0.39819703  0.45094370     0.12700
H787        H  0.88023710  0.35075039  0.57388312     0.11400
H788        H  0.90014170  0.32283789  0.52245922     0.12600
H789        H  0.90925362  0.30956592  0.44720475     0.11600
H790        H  0.84680876  0.38346027  0.38816177     0.08700
H791        H  0.85623459  0.36971997  0.31622974     0.12000
H792        H  0.90466875  0.31405029  0.36750217     0.13800
C793        C  0.88478850  0.42404779  0.21443605    -0.01700
C794        C  0.90365357  0.44127368  0.22143123    -0.09700
C795        C  0.89829326  0.46521910  0.23481135    -0.18500
C796        C  0.87367380  0.47290733  0.24143241     0.03900
C797        C  0.85454985  0.45549900  0.23367538     0.18000
C798        C  0.86023612  0.43134476  0.22079998    -0.20000
C799        C  0.82983301  0.46232645  0.23855750    -0.21200
C800        C  0.82364834  0.48610652  0.25105226    -0.19800
C801        C  0.84202838  0.50356497  0.25974411     0.19400
C802        C  0.86732740  0.49719983  0.25535811     0.01600
C803        C  0.88514422  0.51532904  0.26579147    -0.14500
C804        C  0.87813019  0.53859595  0.28048247    -0.12200
C805        C  0.85318430  0.54479084  0.28495634     0.01100
C806        C  0.83522533  0.52722107  0.27382829    -0.24400
H807        H  0.92278004  0.43622324  0.21672982     0.09100
H808        H  0.91384784  0.47729660  0.23928161     0.12700
H809        H  0.84542863  0.41828492  0.21517840     0.11400
H810        H  0.81515194  0.44919220  0.23251260     0.12600
H811        H  0.80433145  0.49079079  0.25446733     0.11600
H812        H  0.90466630  0.51198323  0.26390521     0.08700
H813        H  0.89242577  0.55169894  0.28907359     0.12000
H814        H  0.81586095  0.53163071  0.27768056     0.13800
C815        C  0.73148944  0.06301298  0.10451516    -0.01700
C816        C  0.73450561  0.06972739  0.06030962    -0.09700
C817        C  0.73979718  0.05203036  0.02814996    -0.18500
C818        C  0.74100964  0.02681023  0.03920785     0.03900
C819        C  0.73893670  0.02034838  0.08460950     0.18000
C820        C  0.73491376  0.03852832  0.11682001    -0.20000
C821        C  0.73881247  0.99564425  0.09722670    -0.21200
C822        C  0.73851559  0.97714050  0.06551572    -0.19800
C823        C  0.73908440  0.98290126  0.02050230     0.19400
C824        C  0.74188939  0.00770489  0.00670570     0.01600
C825        C  0.74370079  0.01230078  0.96079645    -0.14500
C826        C  0.73985319  0.99347842  0.93001299    -0.12200
C827        C  0.73428257  0.96965901  0.94406284     0.01100
C828        C  0.73504641  0.96422050  0.98918721    -0.24400
H829        H  0.73159230  0.08858548  0.05032643     0.09100
H830        H  0.74112875  0.05845732  0.99457763     0.12700
H831        H  0.73199650  0.03330245  0.15101244     0.11400
H832        H  0.73742892  0.99060634  0.13176979     0.12600
H833        H  0.73687605  0.95823427  0.07624426     0.11600
H834        H  0.74702357  0.03040045  0.94770463     0.08700
H835        H  0.73924614  0.99797161  0.89516260     0.12000
H836        H  0.73068714  0.94573724  0.00002318     0.13800
C837        C  0.64675923  0.92146216  0.32326472    -0.01700
C838        C  0.67153785  0.92825224  0.31847851    -0.09700
C839        C  0.67807310  0.95246201  0.30858879    -0.18500
C840        C  0.65987434  0.97067175  0.30221268     0.03900
C841        C  0.63471597  0.96343857  0.30527159     0.18000
C842        C  0.62843100  0.93919265  0.31664056    -0.20000
C843        C  0.61599238  0.98036088  0.29634950    -0.21200
C844        C  0.62172585  0.00416441  0.28317738    -0.19800
C845        C  0.64631179  0.01191286  0.28021785     0.19400
C846        C  0.66570753  0.99557029  0.29144773     0.01600
C847        C  0.69009236  0.00485460  0.29113832    -0.14500
C848        C  0.69512584  0.02875127  0.27703448    -0.12200
C849        C  0.67614514  0.04407613  0.26234559     0.01100
C850        C  0.65168561  0.03574729  0.26511581    -0.24400
H851        H  0.68600990  0.91486258  0.32331321     0.09100
H852        H  0.69750350  0.95625149  0.30525546     0.12700
H853        H  0.60918046  0.93398401  0.31959129     0.11400
H854        H  0.59677221  0.97496895  0.29848940     0.12600
H855        H  0.60681980  0.01659972  0.27522109     0.11600
H856        H  0.70567559  0.99403520  0.30138008     0.08700
H857        H  0.71414892  0.03483322  0.27556906     0.12000
H858        H  0.63683882  0.04767634  0.25459622     0.13800
C859        C  0.76669893  0.17246110  0.18471738    -0.01700
C860        C  0.78929245  0.16707316  0.20504799    -0.09700
C861        C  0.80920600  0.18358997  0.20264239    -0.18500
C862        C  0.80710893  0.20610343  0.17960015     0.03900
C863        C  0.78469090  0.21054095  0.15656079     0.18000
C864        C  0.76493610  0.19388158  0.15933902    -0.20000
C865        C  0.78165418  0.23208025  0.13215480    -0.21200
C866        C  0.79987935  0.25000685  0.13190204    -0.19800
C867        C  0.82154686  0.24695629  0.15632559     0.19400
C868        C  0.82587464  0.22479627  0.17977065     0.01600
C869        C  0.84827729  0.22294008  0.20372736    -0.14500
C870        C  0.86485422  0.24281161  0.20630474    -0.12200
C871        C  0.85968945  0.26505048  0.18500783     0.01100
C872        C  0.83838155  0.26652060  0.15884807    -0.24400
H873        H  0.79125294  0.15055126  0.22455118     0.09100
H874        H  0.82578284  0.17856672  0.22002884     0.12700
H875        H  0.74773168  0.19805272  0.14272830     0.11400
H876        H  0.76474675  0.23540019  0.11405081     0.12600
H877        H  0.79662984  0.26676817  0.11359954     0.11600
H878        H  0.85306983  0.20666273  0.22195620     0.08700
H879        H  0.88121187  0.24110757  0.22658093     0.12000
H880        H  0.83432318  0.28345470  0.14156302     0.13800
C881        C  0.66793209  0.15788622  0.05664034    -0.01700
C882        C  0.68124656  0.17810992  0.04080454    -0.09700
C883        C  0.67629166  0.18784719  0.99913612    -0.18500
C884        C  0.65754562  0.17774593  0.97209664     0.03900
C885        C  0.64357704  0.15773136  0.98905352     0.18000
C886        C  0.64911641  0.14781598  0.03053611    -0.20000
C887        C  0.62404654  0.14776460  0.96466291    -0.21200
C888        C  0.61811982  0.15714978  0.92345708    -0.19800
C889        C  0.63205651  0.17622048  0.90514148     0.19400
C890        C  0.65217082  0.18667319  0.92887147     0.01600
C891        C  0.66652330  0.20493008  0.90757257    -0.14500
C892        C  0.66150803  0.21184361  0.86406894    -0.12200
C893        C  0.64158021  0.20150992  0.84143781     0.01100
C894        C  0.62658802  0.18420175  0.86234190    -0.24400
H895        H  0.69567499  0.18641148  0.06064725     0.09100
H896        H  0.68719495  0.20347172  0.98932457     0.12700
H897        H  0.63834478  0.13250225  0.04293848     0.11400
H898        H  0.61322565  0.13263929  0.97760449     0.12600
H899        H  0.60289303  0.14903071  0.90532114     0.11600
H900        H  0.68232570  0.21342201  0.92290129     0.08700
H901        H  0.67343957  0.22499749  0.84777333     0.12000
H902        H  0.61151130  0.17581533  0.84410346     0.13800
C903        C  0.65673701  0.17058834  0.56054591    -0.01700
C904        C  0.67859413  0.15763980  0.55350305    -0.09700
C905        C  0.68745591  0.15396719  0.51067726    -0.18500
C906        C  0.67478366  0.16362208  0.47372949     0.03900
C907        C  0.65309374  0.17760051  0.48168410     0.18000
C908        C  0.64415853  0.18062551  0.52467607    -0.20000
C909        C  0.64027886  0.18835270  0.44671375    -0.21200
C910        C  0.64825732  0.18515240  0.40360185    -0.19800
C911        C  0.66898290  0.17079015  0.39446598     0.19400
C912        C  0.68262127  0.15979110  0.42923173     0.01600
C913        C  0.70305866  0.14496895  0.41772463    -0.14500
C914        C  0.70919767  0.14075696  0.37348863    -0.12200
C915        C  0.69546309  0.15147766  0.33949781     0.01100
C916        C  0.67568171  0.16684638  0.35043677    -0.24400
H917        H  0.68852508  0.14983946  0.58115125     0.09100
H918        H  0.70424164  0.14357104  0.50760600     0.12700
H919        H  0.62739836  0.19100336  0.53037825     0.11400
H920        H  0.62388447  0.19920457  0.45272826     0.12600
H921        H  0.63784254  0.19357551  0.37712318     0.11600
H922        H  0.71427224  0.13587362  0.44204688     0.08700
H923        H  0.72455078  0.12879854  0.36589098     0.12000
H924        H  0.66471166  0.17508698  0.32447117     0.13800
C925        C  0.60727965  0.14408933  0.21738448    -0.01700
C926        C  0.59145270  0.12550930  0.23237317    -0.09700
C927        C  0.56721350  0.13078340  0.24489680    -0.18500
C928        C  0.55780738  0.15496022  0.24236064     0.03900
C929        C  0.57379266  0.17365561  0.22629079     0.18000
C930        C  0.59824729  0.16814487  0.21444547    -0.20000
C931        C  0.56531164  0.19778962  0.22218556    -0.21200
C932        C  0.54137017  0.20391146  0.23435248    -0.19800
C933        C  0.52533032  0.18611810  0.25137390     0.19400
C934        C  0.53326579  0.16134029  0.25549744     0.01600
C935        C  0.51644827  0.14419060  0.27351417    -0.14500
C936        C  0.49322139  0.15152035  0.28833504    -0.12200
C937        C  0.48567280  0.17605609  0.28518814     0.01100
C938        C  0.50163772  0.19314618  0.26559317    -0.24400
H939        H  0.59791982  0.10676969  0.23490103     0.09100
H940        H  0.55630046  0.11549318  0.25627941     0.12700
H941        H  0.61021326  0.18263321  0.20234928     0.11400
H942        H  0.57734252  0.21209642  0.20966382     0.12600
H943        H  0.53548446  0.22281593  0.23107750     0.11600
H944        H  0.52089305  0.12507454  0.27770915     0.08700
H945        H  0.48124035  0.13790870  0.30324730     0.12000
H946        H  0.49611891  0.21222305  0.26345550     0.13800
C947        C  0.35222658  0.99067939  0.25943208    -0.01700
C948        C  0.33328021  0.00771329  0.26606539    -0.09700
C949        C  0.33835970  0.03125972  0.28163642    -0.18500
C950        C  0.36276782  0.03869341  0.29127426     0.03900
C951        C  0.38184231  0.02101590  0.28657023     0.18000
C952        C  0.37646205  0.99730608  0.27060878    -0.20000
C953        C  0.40623622  0.02731507  0.29679305    -0.21200
C954        C  0.41221919  0.05101922  0.31041126    -0.19800
C955        C  0.39399188  0.06907751  0.31380850     0.19400
C956        C  0.36896235  0.06312351  0.30459481     0.01600
C957        C  0.35129020  0.08204004  0.30814942    -0.14500
C958        C  0.35819658  0.10584245  0.31978817    -0.12200
C959        C  0.38288288  0.11176484  0.32862287     0.01100
C960        C  0.40068809  0.09316533  0.32586194    -0.24400
H961        H  0.31438572  0.00315102  0.25770339     0.09100
H962        H  0.32274575  0.04326472  0.28511682     0.12700
H963        H  0.39124405  0.98419457  0.26594882     0.11400
H964        H  0.42085040  0.01389518  0.29370074     0.12600
H965        H  0.43131855  0.05536344  0.31763695     0.11600
H966        H  0.33196504  0.07919331  0.30171162     0.08700
H967        H  0.34396969  0.11970680  0.32190663     0.12000
H968        H  0.41985268  0.09745269  0.33268957     0.13800
C969        C  0.37657085  0.84212607  0.83486323    -0.01700
C970        C  0.38180918  0.82547328  0.86855261    -0.09700
C971        C  0.37713137  0.83162788  0.91259214    -0.18500
C972        C  0.36767733  0.85501269  0.92408257     0.03900
C973        C  0.36261925  0.87182290  0.88944266     0.18000
C974        C  0.36664183  0.86508873  0.84549199    -0.20000
C975        C  0.35424200  0.89553224  0.89878348    -0.21200
C976        C  0.35134013  0.90322569  0.94214590    -0.19800
C977        C  0.35623281  0.88719661  0.97703184     0.19400
C978        C  0.36382873  0.86265509  0.96861748     0.01600
C979        C  0.36744354  0.84697122  0.00519213    -0.14500
C980        C  0.36454191  0.85562056  0.04827462    -0.12200
C981        C  0.35814208  0.88010880  0.05619451     0.01100
C982        C  0.35372962  0.89569620  0.02041997    -0.24400
H983        H  0.38955461  0.80767042  0.86080060     0.09100
H984        H  0.38176059  0.81797517  0.93685986     0.12700
H985        H  0.36298847  0.87823711  0.81943125     0.11400
H986        H  0.35042904  0.90839121  0.87238417     0.12600
H987        H  0.34532619  0.92187043  0.94844127     0.11600
H988        H  0.37242708  0.82794674  0.00164545     0.08700
H989        H  0.36770207  0.84315940  0.07551980     0.12000
H990        H  0.34816706  0.91453177  0.02633686     0.13800
C991        C  0.32512388  0.88889817  0.33670225    -0.01700
C992        C  0.32314133  0.86520658  0.35400328    -0.09700
C993        C  0.33043312  0.86038291  0.39732383    -0.18500
C994        C  0.34069246  0.87912644  0.42416841     0.03900
C995        C  0.34264384  0.90313449  0.40615533     0.18000
C996        C  0.33426054  0.90789803  0.36330285    -0.20000
C997        C  0.35390245  0.92204307  0.43023311    -0.21200
C998        C  0.36390940  0.91748862  0.47159577    -0.19800
C999        C  0.36216083  0.89412422  0.49039705     0.19400
C1000       C  0.34987834  0.87476380  0.46757258     0.01600
C1001       C  0.34731960  0.85192480  0.48926922    -0.14500
C1002       C  0.35695086  0.84841235  0.53149020    -0.12200
C1003       C  0.36984607  0.86727051  0.55281518     0.01100
C1004       C  0.37247398  0.89004569  0.53217431    -0.24400
H1005       H  0.31640082  0.85024864  0.33361043     0.09100
H1006       H  0.32878802  0.84162559  0.40811074     0.12700
H1007       H  0.33641494  0.92615557  0.34954400     0.11400
H1008       H  0.35554228  0.94033701  0.41650147     0.12600
H1009       H  0.37299487  0.93236820  0.48907883     0.11600
H1010       H  0.33759179  0.83659619  0.47490765     0.08700
H1011       H  0.35452306  0.83077745  0.54743299     0.12000
H1012       H  0.38197024  0.90482804  0.54928769     0.13800
C1013       C  0.41824917  0.88815218  0.22478045    -0.01700
C1014       C  0.43674653  0.90612378  0.22184295    -0.09700
C1015       C  0.46100048  0.90102359  0.23402824    -0.18500
C1016       C  0.46777285  0.87751250  0.24936280     0.03900
C1017       C  0.44901689  0.85923294  0.25205170     0.18000
C1018       C  0.42452967  0.86474941  0.24031933    -0.20000
C1019       C  0.45486362  0.83547269  0.26597773    -0.21200
C1020       C  0.47896448  0.82939376  0.27706151    -0.19800
C1021       C  0.49777995  0.84701932  0.27520933     0.19400
C1022       C  0.49245573  0.87143378  0.26185139     0.01600
C1023       C  0.51201917  0.88872874  0.26224267    -0.14500
C1024       C  0.53570568  0.88208588  0.27583091    -0.12200
C1025       C  0.54085776  0.85795448  0.28856768     0.01100
C1026       C  0.52183203  0.84045692  0.28762236    -0.24400
H1027       H  0.43248131  0.92436629  0.20996879     0.09100
H1028       H  0.47407038  0.91582464  0.23044928     0.12700
H1029       H  0.41045495  0.85061086  0.24236127     0.11400
H1030       H  0.44071319  0.82142242  0.26803121     0.12600
H1031       H  0.48287563  0.81080015  0.28756185     0.11600
H1032       H  0.50952116  0.90768203  0.25325129     0.08700
H1033       H  0.55003447  0.89598494  0.27678624     0.12000
H1034       H  0.52550287  0.82185866  0.29845331     0.13800
C1035       C  0.96619292  0.73691131  0.93798847    -0.01700
C1036       C  0.95917830  0.73876602  0.98224268    -0.09700
C1037       C  0.97668701  0.74336603  0.01494913    -0.18500
C1038       C  0.00204186  0.74513629  0.00428742     0.03900
C1039       C  0.00876212  0.74508243  0.95883139     0.18000
C1040       C  0.99069888  0.74157599  0.92607464    -0.20000
C1041       C  0.03363315  0.74633950  0.94656324    -0.21200
C1042       C  0.05209699  0.74549621  0.97843359    -0.19800
C1043       C  0.04608601  0.74371052  0.02328848     0.19400
C1044       C  0.02099352  0.74474388  0.03700937     0.01600
C1045       C  0.01591712  0.74343125  0.08279565    -0.14500
C1046       C  0.03465842  0.73878403  0.11306037    -0.12200
C1047       C  0.05893744  0.73582369  0.09884465     0.01100
C1048       C  0.06483077  0.73921048  0.05431134    -0.24400
H1049       H  0.94026386  0.73510648  0.99182260     0.09100
H1050       H  0.96992966  0.74374911  0.04839308     0.12700
H1051       H  0.99613517  0.73973941  0.89172324     0.11400
H1052       H  0.03886884  0.74659454  0.91200120     0.12600
H1053       H  0.07118215  0.74516072  0.96780772     0.11600
H1054       H  0.99757484  0.74484426  0.09616361     0.08700
H1055       H  0.02995274  0.73607078  0.14752989     0.12000
H1056       H  0.08372391  0.73668534  0.04347547     0.13800
C1057       C  0.03796267  0.68195961  0.24725601    -0.01700
C1058       C  0.02077584  0.70092478  0.25278526    -0.09700
C1059       C  0.99646185  0.69587693  0.26534598    -0.18500
C1060       C  0.98849648  0.67153132  0.27327389     0.03900
C1061       C  0.00629404  0.65249694  0.26968374     0.18000
C1062       C  0.03058064  0.65779063  0.25627774    -0.20000
C1063       C  0.99972549  0.62822186  0.27923064    -0.21200
C1064       C  0.97588661  0.62239873  0.29256605    -0.19800
C1065       C  0.95779032  0.64058449  0.29552093     0.19400
C1066       C  0.96364449  0.66535515  0.28500410     0.01600
C1067       C  0.94428399  0.68271211  0.28620442    -0.14500
C1068       C  0.92039470  0.67585871  0.29876576    -0.12200
C1069       C  0.91499978  0.65161320  0.31106148     0.01100
C1070       C  0.93382794  0.63406175  0.30894434    -0.24400
H1071       H  0.02591420  0.71977958  0.24602886     0.09100
H1072       H  0.98434767  0.71141738  0.26867794     0.12700
H1073       H  0.04373617  0.64298169  0.25251750     0.11400
H1074       H  0.01319906  0.61363072  0.27674406     0.12600
H1075       H  0.97151142  0.60345450  0.30023299     0.11600
H1076       H  0.94698247  0.70167233  0.27727963     0.08700
H1077       H  0.90617829  0.68977350  0.29970797     0.12000
H1078       H  0.92980125  0.61515998  0.31757143     0.13800
C1079       C  0.26127655  0.86393032  0.17399018    -0.01700
C1080       C  0.23910837  0.86884421  0.19613585    -0.09700
C1081       C  0.21917790  0.85251163  0.19348676    -0.18500
C1082       C  0.22084678  0.83056736  0.16855107     0.03900
C1083       C  0.24261148  0.82677722  0.14322115     0.18000
C1084       C  0.26244214  0.84336448  0.14609398    -0.20000
C1085       C  0.24497990  0.80583660  0.11673525    -0.21200
C1086       C  0.22687191  0.78775559  0.11693957    -0.19800
C1087       C  0.20604757  0.79007077  0.14391457     0.19400
C1088       C  0.20232688  0.81174957  0.16928026     0.01600
C1089       C  0.18088041  0.81298731  0.19590800    -0.14500
C1090       C  0.16468159  0.79298041  0.19911578    -0.12200
C1091       C  0.16918921  0.77118714  0.17575525     0.01100
C1092       C  0.18950893  0.77027573  0.14709423    -0.24400
H1093       H  0.23751526  0.88479954  0.21735997     0.09100
H1094       H  0.20300658  0.85719812  0.21236535     0.12700
H1095       H  0.27927812  0.83963213  0.12797024     0.11400
H1096       H  0.26133571  0.80303873  0.09677891     0.12600
H1097       H  0.22963441  0.77140504  0.09708373     0.11600
H1098       H  0.17655835  0.82883362  0.21580060     0.08700
H1099       H  0.14906209  0.79428858  0.22129620     0.12000
H1100       H  0.19306478  0.75367231  0.12833418     0.13800
C1101       C  0.15171199  0.67489598  0.04953386    -0.01700
C1102       C  0.13753303  0.68407679  0.01485556    -0.09700
C1103       C  0.14498751  0.68091689  0.97130938    -0.18500
C1104       C  0.16679825  0.66792113  0.96097692     0.03900
C1105       C  0.18108177  0.65848323  0.99642395     0.18000
C1106       C  0.17367811  0.66244807  0.04034815    -0.20000
C1107       C  0.20233327  0.64475203  0.98773013    -0.21200
C1108       C  0.20955347  0.63989456  0.94443701    -0.19800
C1109       C  0.19595856  0.64904806  0.90881334     0.19400
C1110       C  0.17461293  0.66355091  0.91673700     0.01600
C1111       C  0.16186778  0.67300733  0.87999242    -0.14500
C1112       C  0.16956420  0.66787903  0.83732630    -0.12200
C1113       C  0.19024716  0.65312934  0.82925871     0.01100
C1114       C  0.20345770  0.64375676  0.86524626    -0.24400
H1115       H  0.12054086  0.69384536  0.02151968     0.09100
H1116       H  0.13289812  0.68846425  0.94662064     0.12700
H1117       H  0.18451808  0.65511033  0.06735188     0.11400
H1118       H  0.21324914  0.63741797  0.01459965     0.12600
H1119       H  0.22589800  0.62892665  0.93878460     0.11600
H1120       H  0.14584232  0.68454537  0.88283983     0.08700
H1121       H  0.15881861  0.67533932  0.81036037     0.12000
H1122       H  0.21952654  0.63240852  0.85940432     0.13800
C1123       C  0.16878726  0.66173472  0.54793219    -0.01700
C1124       C  0.18587908  0.67752460  0.52809557    -0.09700
C1125       C  0.18150211  0.68693893  0.48601063    -0.18500
C1126       C  0.15959219  0.68103383  0.46287151     0.03900
C1127       C  0.14193907  0.66576715  0.48422273     0.18000
C1128       C  0.14685224  0.65601800  0.52594901    -0.20000
C1129       C  0.11943766  0.66028663  0.46390381    -0.21200
C1130       C  0.11409310  0.66946448  0.42234987    -0.19800
C1131       C  0.13141033  0.68376293  0.39974920     0.19400
C1132       C  0.15454088  0.68959542  0.41936274     0.01600
C1133       C  0.17185223  0.70300153  0.39393131    -0.14500
C1134       C  0.16655303  0.70972658  0.35049606    -0.12200
C1135       C  0.14365733  0.70404757  0.33189335     0.01100
C1136       C  0.12600795  0.69154229  0.35687583    -0.24400
H1137       H  0.20283839  0.68236598  0.54497366     0.09100
H1138       H  0.19545153  0.69897612  0.47274166     0.12700
H1139       H  0.13331461  0.64425460  0.54177517     0.11400
H1140       H  0.10586215  0.64883573  0.48028542     0.12600
H1141       H  0.09650963  0.66488301  0.40736170     0.11600
H1142       H  0.18993553  0.70776937  0.40603544     0.08700
H1143       H  0.18044942  0.71920068  0.33120347     0.12000
H1144       H  0.10847135  0.68664649  0.34191911     0.13800
C1145       C  0.17694469  0.49379966  0.28279758    -0.01700
C1146       C  0.19578099  0.50996798  0.26999542    -0.09700
C1147       C  0.19033152  0.53349450  0.25450902    -0.18500
C1148       C  0.16566654  0.54172918  0.25124815     0.03900
C1149       C  0.14658877  0.52491985  0.26257417     0.18000
C1150       C  0.15234420  0.50132891  0.27820211    -0.20000
C1151       C  0.12184442  0.53190460  0.25912277    -0.21200
C1152       C  0.11556940  0.55539510  0.24529412    -0.19800
C1153       C  0.13387150  0.57262829  0.23502642     0.19400
C1154       C  0.15921528  0.56607580  0.23783937     0.01600
C1155       C  0.17694665  0.58436271  0.22801812    -0.14500
C1156       C  0.16980557  0.60813812  0.21664638    -0.12200
C1157       C  0.14482979  0.61449821  0.21385262     0.01100
C1158       C  0.12694489  0.59651894  0.22254041    -0.24400
H1159       H  0.21494438  0.50471379  0.27319995     0.09100
H1160       H  0.20586636  0.54487533  0.24585458     0.12700
H1161       H  0.13756246  0.48896405  0.28768040     0.11400
H1162       H  0.10720576  0.51914750  0.26751353     0.12600
H1163       H  0.09623284  0.56023207  0.24324225     0.11600
H1164       H  0.19649181  0.58099964  0.22936919     0.08700
H1165       H  0.18399071  0.62160749  0.20949833     0.12000
H1166       H  0.10757767  0.60128553  0.22053275     0.13800
C1167       C  0.38089183  0.92836381  0.71693419    -0.01700
C1168       C  0.39931863  0.94642140  0.71858623    -0.09700
C1169       C  0.39394920  0.97026836  0.73196149    -0.18500
C1170       C  0.36976665  0.97700342  0.74426188     0.03900
C1171       C  0.35104119  0.95868051  0.74249469     0.18000
C1172       C  0.35674010  0.93464524  0.72907867    -0.20000
C1173       C  0.32674901  0.96446530  0.75405962    -0.21200
C1174       C  0.32062669  0.98810921  0.76739280    -0.19800
C1175       C  0.33869044  0.00647676  0.76983021     0.19400
C1176       C  0.36354841  0.00120428  0.75841275     0.01600
C1177       C  0.38116275  0.02031541  0.76228700    -0.14500
C1178       C  0.37447671  0.04342963  0.77789725    -0.12200
C1179       C  0.35003826  0.04843273  0.78941651     0.01100
C1180       C  0.33213647  0.03000275  0.78458369    -0.24400
H1181       H  0.41813305  0.94216868  0.70939126     0.09100
H1182       H  0.40920207  0.98297168  0.73208889     0.12700
H1183       H  0.34228546  0.92085601  0.72793315     0.11400
H1184       H  0.31237702  0.95060481  0.75277571     0.12600
H1185       H  0.30166516  0.99200262  0.77623198     0.11600
H1186       H  0.40036393  0.01795208  0.75435737     0.08700
H1187       H  0.38859218  0.05742830  0.78135836     0.12000
H1188       H  0.31320561  0.03367682  0.79402148     0.13800
C1189       C  0.29639963  0.07174092  0.94804262    -0.01700
C1190       C  0.28372520  0.04995891  0.93856213    -0.09700
C1191       C  0.28082320  0.03193313  0.97113357    -0.18500
C1192       C  0.29090426  0.03525393  0.01395152     0.03900
C1193       C  0.30187967  0.05838714  0.02394461     0.18000
C1194       C  0.30428436  0.07633378  0.99121054    -0.20000
C1195       C  0.31212313  0.06289508  0.06556399    -0.21200
C1196       C  0.31341673  0.04431380  0.09664074    -0.19800
C1197       C  0.30434026  0.02087167  0.08687163     0.19400
C1198       C  0.29207789  0.01610285  0.04617834     0.01600
C1199       C  0.28293612  0.99199991  0.03876638    -0.14500
C1200       C  0.28752932  0.97310588  0.06906006    -0.12200
C1201       C  0.30116540  0.97784933  0.10731787     0.01100
C1202       C  0.30872281  0.00183684  0.11673146    -0.24400
H1203       H  0.27772217  0.04608092  0.90511154     0.09100
H1204       H  0.27182853  0.01513481  0.96118891     0.12700
H1205       H  0.31415458  0.09324581  0.99838137     0.11400
H1206       H  0.32022870  0.08059333  0.07341639     0.12600
H1207       H  0.32244920  0.04805251  0.12791172     0.11600
H1208       H  0.27298491  0.98703174  0.00923022     0.08700
H1209       H  0.28158555  0.95456662  0.06146013     0.12000
H1210       H  0.31918439  0.00542941  0.14666588     0.13800
C1211       C  0.35486596  0.16538873  0.98289296    -0.01700
C1212       C  0.36368668  0.18917455  0.99064915    -0.09700
C1213       C  0.36806768  0.19728621  0.03384037    -0.18500
C1214       C  0.36341689  0.18174976  0.07038442     0.03900
C1215       C  0.35327221  0.15809194  0.06185697     0.18000
C1216       C  0.34931618  0.15017717  0.01860348    -0.20000
C1217       C  0.34742088  0.14218801  0.09644082    -0.21200
C1218       C  0.35175838  0.14908719  0.13973327    -0.19800
C1219       C  0.36244642  0.17185715  0.14928484     0.19400
C1220       C  0.36859852  0.18857048  0.11497951     0.01600
C1221       C  0.38022075  0.21096275  0.12693089    -0.14500
C1222       C  0.38568371  0.21626796  0.17114849    -0.12200
C1223       C  0.37924544  0.19968076  0.20448033     0.01100
C1224       C  0.36746065  0.17768387  0.19321999    -0.24400
H1225       H  0.36789149  0.20123927  0.96324137     0.09100
H1226       H  0.37514951  0.21568596  0.03758300     0.12700
H1227       H  0.34197617  0.13190739  0.01263296     0.11400
H1228       H  0.33953917  0.12422038  0.08994746     0.12600
H1229       H  0.34712227  0.13632778  0.16590887     0.11600
H1230       H  0.38574207  0.22445142  0.10286119     0.08700
H1231       H  0.39487814  0.23337236  0.17929943     0.12000
H1232       H  0.36282860  0.16453736  0.21881995     0.13800
C1233       C  0.32413837  0.14928025  0.70173705    -0.01700
C1234       C  0.31876791  0.17193130  0.68252965    -0.09700
C1235       C  0.32599262  0.17694152  0.63923677    -0.18500
C1236       C  0.33963028  0.15958956  0.61445747     0.03900
C1237       C  0.34491501  0.13657732  0.63441795     0.18000
C1238       C  0.33661893  0.13145052  0.67723097    -0.20000
C1239       C  0.35927969  0.11917119  0.61229721    -0.21200
C1240       C  0.36903378  0.12430463  0.57095294    -0.19800
C1241       C  0.36416387  0.14673012  0.55038194     0.19400
C1242       C  0.34892034  0.16450417  0.57128288     0.01600
C1243       C  0.34377933  0.18642743  0.54807382    -0.14500
C1244       C  0.35369702  0.19061030  0.50622230    -0.12200
C1245       C  0.36933285  0.17336071  0.48671512     0.01100
C1246       C  0.37447651  0.15147170  0.50886358    -0.24400
H1247       H  0.30934126  0.18597636  0.70142947     0.09100
H1248       H  0.32147035  0.19488999  0.62681823     0.12700
H1249       H  0.34128742  0.11410708  0.69264140     0.11400
H1250       H  0.36345325  0.10167214  0.62750023     0.12600
H1251       H  0.38047925  0.11063705  0.55495348     0.11600
H1252       H  0.33195620  0.20056569  0.56108075     0.08700
H1253       H  0.34938954  0.20755658  0.48925561     0.12000
H1254       H  0.38619221  0.13785661  0.49327979     0.13800
C1255       C  0.41526694  0.15317053  0.81620204    -0.01700
C1256       C  0.42230442  0.17767256  0.80991284    -0.09700
C1257       C  0.44650689  0.18372638  0.79832279    -0.18500
C1258       C  0.46452229  0.16530690  0.79200721     0.03900
C1259       C  0.45707289  0.14041930  0.79711845     0.18000
C1260       C  0.43278558  0.13463180  0.80966878    -0.20000
C1261       C  0.47387581  0.12142250  0.78951620    -0.21200
C1262       C  0.49793328  0.12656688  0.77654627    -0.19800
C1263       C  0.50595550  0.15085061  0.77170324     0.19400
C1264       C  0.48951582  0.17061043  0.78016389     0.01600
C1265       C  0.49884882  0.19477600  0.77633936    -0.14500
C1266       C  0.52310630  0.19909221  0.76291673    -0.12200
C1267       C  0.53893052  0.17956921  0.75266217     0.01100
C1268       C  0.53028074  0.15546352  0.75784674    -0.24400
H1269       H  0.40912908  0.19233147  0.81485711     0.09100
H1270       H  0.45046112  0.20298671  0.79419072     0.12700
H1271       H  0.42743638  0.11558556  0.81398988     0.11400
H1272       H  0.46829366  0.10241296  0.79316743     0.12600
H1273       H  0.51037968  0.11141549  0.77032497     0.11600
H1274       H  0.48784751  0.21076969  0.78331873     0.08700
H1275       H  0.52924560  0.21792453  0.75931463     0.12000
H1276       H  0.54239117  0.14019573  0.75041959     0.13800
C1277       C  0.04127360  0.36139069  0.77844446    -0.01700
C1278       C  0.03448591  0.38606030  0.77531767    -0.09700
C1279       C  0.01118293  0.39253570  0.75988097    -0.18500
C1280       C  0.99362856  0.37433752  0.74834821     0.03900
C1281       C  0.00081603  0.34930928  0.75116000     0.18000
C1282       C  0.02465893  0.34313141  0.76500897    -0.20000
C1283       C  0.98383605  0.33055623  0.74217266    -0.21200
C1284       C  0.95950918  0.33609170  0.73202741    -0.19800
C1285       C  0.95179126  0.36051861  0.72937575     0.19400
C1286       C  0.96892659  0.38001544  0.73600909     0.01600
C1287       C  0.96049537  0.40433973  0.73045347    -0.14500
C1288       C  0.93593402  0.40907023  0.72017767    -0.12200
C1289       C  0.91895318  0.38983588  0.71567098     0.01100
C1290       C  0.92698112  0.36558852  0.72012315    -0.24400
H1291       H  0.04709782  0.40040331  0.78580872     0.09100
H1292       H  0.00715070  0.41188133  0.75925707     0.12700
H1293       H  0.02972536  0.32396826  0.76823311     0.11400
H1294       H  0.98922052  0.31144976  0.74432640     0.12600
H1295       H  0.94661800  0.32116173  0.72639519     0.11600
H1296       H  0.97244105  0.42010119  0.73332004     0.08700
H1297       H  0.93011973  0.42794842  0.71618777     0.12000
H1298       H  0.91398115  0.35062766  0.71548290     0.13800
C1299       C  0.05830017  0.30436025  0.93506554    -0.01700
C1300       C  0.06552450  0.30014200  0.97870355    -0.09700
C1301       C  0.04796256  0.29490294  0.01120225    -0.18500
C1302       C  0.02245833  0.29496127  0.00111644     0.03900
C1303       C  0.01545491  0.29829829  0.95619860     0.18000
C1304       C  0.03343033  0.30221730  0.92355853    -0.20000
C1305       C  0.99052422  0.29978124  0.94462769    -0.21200
C1306       C  0.97241332  0.30013547  0.97708698    -0.19800
C1307       C  0.97877523  0.29822973  0.02173595     0.19400
C1308       C  0.00369389  0.29410395  0.03429018     0.01600
C1309       C  0.00881581  0.29095258  0.07979994    -0.14500
C1310       C  0.99048606  0.29465005  0.11162472    -0.12200
C1311       C  0.96668517  0.30147667  0.09897187     0.01100
C1312       C  0.96063623  0.30213310  0.05406540    -0.24400
H1313       H  0.08472225  0.30207248  0.98806030     0.09100
H1314       H  0.05479583  0.29260800  0.04437146     0.12700
H1315       H  0.02786820  0.30606716  0.88983373     0.11400
H1316       H  0.98507985  0.30216611  0.91044282     0.12600
H1317       H  0.95338633  0.30280639  0.96730059     0.11600
H1318       H  0.02698143  0.28659001  0.09184579     0.08700
H1319       H  0.99543008  0.29409321  0.14630295     0.12000
H1320       H  0.94212913  0.30735859  0.04434331     0.13800
C1321       C  0.16480045  0.26681252  0.85675741    -0.01700
C1322       C  0.16033136  0.24524769  0.83272417    -0.09700
C1323       C  0.17641449  0.22525394  0.83604966    -0.18500
C1324       C  0.19753800  0.22640529  0.86356637     0.03900
C1325       C  0.20075929  0.24771267  0.89021795     0.18000
C1326       C  0.18442086  0.26744888  0.88677340    -0.20000
C1327       C  0.22103124  0.24986502  0.91850904    -0.21200
C1328       C  0.23923927  0.23207037  0.91870574    -0.19800
C1329       C  0.23752501  0.21166172  0.89077326     0.19400
C1330       C  0.21627076  0.20796163  0.86398086     0.01600
C1331       C  0.21541034  0.18660804  0.83725959    -0.14500
C1332       C  0.23560316  0.17071352  0.83479944    -0.18600
C1333       C  0.25716532  0.17556971  0.85887740     0.01100
C1334       C  0.25756133  0.19555948  0.88803584    -0.24400
H1335       H  0.14511498  0.24429498  0.80958815     0.09100
H1336       H  0.17235847  0.20956588  0.81550112     0.12700
H1337       H  0.18767228  0.28392481  0.90616659     0.11400
H1338       H  0.22333174  0.26592054  0.93935932     0.12600
H1339       H  0.25521770  0.23474450  0.93971546     0.11600
H1340       H  0.19973096  0.18212118  0.81686643     0.08700
H1341       H  0.23473389  0.15519804  0.81239132     0.12000
H1342       H  0.27397324  0.19918367  0.90751058     0.13800
C1343       C  0.15375858  0.36400494  0.98615740    -0.01700
C1344       C  0.16510982  0.34494072  0.00920757    -0.09700
C1345       C  0.17476478  0.34901377  0.05132585    -0.18500
C1346       C  0.17378911  0.37258462  0.07104443     0.03900
C1347       C  0.16295716  0.39198873  0.04645492     0.18000
C1348       C  0.15264639  0.38741579  0.00487431    -0.20000
C1349       C  0.16257283  0.41589436  0.06331847    -0.21200
C1350       C  0.17240209  0.42097996  0.10463255    -0.19800
C1351       C  0.18223714  0.40215303  0.13045548     0.19400
C1352       C  0.18302753  0.37763769  0.11422641     0.01600
C1353       C  0.19225488  0.35918425  0.14253889    -0.14500
C1354       C  0.19940588  0.36476672  0.18569084    -0.12200
C1355       C  0.19827867  0.38890238  0.20138059     0.01100
C1356       C  0.19037709  0.40759876  0.17323707    -0.24400
H1357       H  0.16629682  0.32677012  0.99471741     0.09100
H1358       H  0.18317268  0.33348081  0.06722607     0.12700
H1359       H  0.14431032  0.40227829  0.98638708     0.11400
H1360       H  0.15459775  0.43076793  0.04442418     0.12600
H1361       H  0.17173958  0.43967218  0.11693688     0.11600
H1362       H  0.19328797  0.34015897  0.13297793     0.08700
H1363       H  0.20545152  0.35008166  0.20716310     0.12000
H1364       H  0.18910849  0.42626380  0.18561350     0.13800
C1365       C  0.14942428  0.34138127  0.70357701    -0.01700
C1366       C  0.16639427  0.36042801  0.69627368    -0.09700
C1367       C  0.17194390  0.36829525  0.65388004    -0.18500
C1368       C  0.16065667  0.35734410  0.61677061     0.03900
C1369       C  0.14444898  0.33713727  0.62383623     0.18000
C1370       C  0.13870391  0.32953363  0.66709491    -0.20000
C1371       C  0.13395131  0.32488372  0.58768878    -0.21200
C1372       C  0.13899098  0.33249336  0.54472090    -0.19800
C1373       C  0.15401487  0.35300595  0.53697211     0.19400
C1374       C  0.16483091  0.36590197  0.57297862     0.01600
C1375       C  0.17872979  0.38732257  0.56377261    -0.14500
C1376       C  0.18164374  0.39560173  0.52065396    -0.12200
C1377       C  0.17130396  0.38264910  0.48532698     0.01100
C1378       C  0.15780428  0.36114941  0.49348730    -0.24400
H1379       H  0.17515286  0.36990743  0.72362134     0.09100
H1380       H  0.18519390  0.38292454  0.65147060     0.12700
H1381       H  0.12578611  0.31459592  0.67231742     0.11400
H1382       H  0.12177653  0.30931932  0.59267075     0.12600
H1383       H  0.13061536  0.32262411  0.51741727     0.11600
H1384       H  0.18698606  0.39852674  0.58902245     0.08700
H1385       H  0.19213639  0.41225698  0.51488917     0.12000
H1386       H  0.14948389  0.35129229  0.46609182     0.13800
C1387       C  0.14401351  0.42584269  0.82463575    -0.01700
C1388       C  0.16816934  0.43449498  0.83052548    -0.09700
C1389       C  0.17486586  0.45823897  0.81760503    -0.18500
C1390       C  0.15760830  0.47411962  0.79751170     0.03900
C1391       C  0.13328649  0.46501318  0.79054507     0.18000
C1392       C  0.12665026  0.44130298  0.80470999    -0.20000
C1393       C  0.11578197  0.47950401  0.76895641    -0.21200
C1394       C  0.12196298  0.50274996  0.75355271    -0.19800
C1395       C  0.14565016  0.51235898  0.76021969     0.19400
C1396       C  0.16368709  0.49845645  0.78318577     0.01600
C1397       C  0.18698023  0.50955182  0.79061799    -0.14500
C1398       C  0.19243921  0.53294453  0.77412649    -0.12200
C1399       C  0.17500629  0.54602432  0.74947812     0.01100
C1400       C  0.15147814  0.53571093  0.74342237    -0.24400
H1401       H  0.18197207  0.42290717  0.84567312     0.09100
H1402       H  0.19379447  0.46348545  0.82313335     0.12700
H1403       H  0.10800985  0.43466730  0.79932971     0.11400
H1404       H  0.09725159  0.47265972  0.76333863     0.12600
H1405       H  0.10808299  0.51330715  0.73628405     0.11600
H1406       H  0.20139815  0.50058059  0.80892915     0.08700
H1407       H  0.21070203  0.54048108  0.77954030     0.12000
H1408       H  0.13767590  0.54576855  0.72498361     0.13800
loop_ 
_geom_bond_atom_site_label_1 
_geom_bond_atom_site_label_2 
_geom_bond_distance 
_geom_bond_site_symmetry_2 
_ccdc_geom_bond_type 
Fe1          O17   2.043       .  S
Fe1           O7   2.048       .  S
Fe1          O14   2.081       .  S
Fe1           O6   2.037       .  S
Fe1          O12   1.965       .  S
Fe2           O5   2.062       .  S
Fe2           O9   2.069       .  S
Fe2          O13   2.064       .  S
Fe2          O18   2.051       .  S
Fe2          O12   1.965       .  S
Fe3          O21   2.084       .  S
Fe3           O8   2.054       .  S
Fe3          O15   2.070       .  S
Fe3           O4   2.087       .  S
Fe3          O12   1.986       .  S
O4           C11   1.276       .  A
O5           C19   1.273       .  A
O6           C11   1.269       .  A
O7           C10   1.264       .  A
O8           C20   1.264       .  A
O9           C22   1.268       .  A
C10          O15   1.265       .  A
C10        C1321   1.478       .  S
C11        C1365   1.479       .  S
O13          C16   1.268       .  A
O14          C16   1.271       .  A
C16        C1387   1.485       .  S
O17          C22   1.263       .  A
O18          C20   1.264       .  A
C19          O21   1.276       .  A
C19        C1299   1.467       .  S
C20        C1277   1.470       .  S
C22        C1343   1.463       .  S
Fe23         O39   2.066       .  S
Fe23         O29   2.070       .  S
Fe23         O36   2.068       .  S
Fe23         O28   2.052       .  S
Fe23         O34   1.972       .  S
Fe24         O27   2.049       .  S
Fe24         O31   2.064       .  S
Fe24         O35   2.042       .  S
Fe24         O40   2.063       .  S
Fe24         O34   1.954       .  S
Fe25         O43   2.067       .  S
Fe25         O30   2.071       .  S
Fe25         O37   2.058       .  S
Fe25         O26   2.075       .  S
Fe25         O34   1.977       .  S
O26          C33   1.268       .  A
O27          C41   1.264       .  A
O28          C33   1.265       .  A
O29          C32   1.273       .  A
O30          C42   1.272       .  A
O31          C44   1.268       .  A
C32          O37   1.272       .  A
C32        C1233   1.464       .  S
C33        C1333   1.480       .  S
O35          C38   1.267       .  A
O36          C38   1.269       .  A
C38        C1211   1.467       .  S
O39          C44   1.268       .  A
O40          C42   1.272       .  A
C41          O43   1.266       .  A
C41        C1179   1.473       .  S
C42        C1189   1.468       .  S
C44        C1255   1.481       .  S
Fe45         O61   2.069       .  S
Fe45         O51   2.052       .  S
Fe45         O58   2.058       .  S
Fe45         O50   2.080       .  S
Fe45         O56   1.962       .  S
Fe46         O49   2.078       .  S
Fe46         O53   2.050       .  S
Fe46         O57   2.082       .  S
Fe46         O62   2.062       .  S
Fe46         O56   1.950       .  S
Fe47         O65   2.059       .  S
Fe47         O52   2.085       .  S
Fe47         O59   2.087       .  S
Fe47         O48   2.048       .  S
Fe47         O56   1.964       .  S
O48          C55   1.272       .  A
O49          C63   1.274       .  A
O50          C55   1.275       .  A
O51          C54   1.264       .  A
O52          C64   1.270       .  A
O53          C66   1.269       .  A
C54          O59   1.269       .  A
C54        C1091   1.487       .  S
C55        C1135   1.463       .  S
O57          C60   1.271       .  A
O58          C60   1.268       .  A
C60        C1157   1.483       .  S
O61          C66   1.270       .  A
O62          C64   1.267       .  A
C63          O65   1.271       .  A
C63        C1047   1.461       .  S
C64        C1057   1.486       .  S
C66        C1101   1.466       .  S
Fe67         O83   2.069       .  S
Fe67         O73   2.074       .  S
Fe67         O80   2.069       .  S
Fe67         O72   2.059       .  S
Fe67         O78   1.959       .  S
Fe68         O71   2.058       .  S
Fe68         O75   2.064       .  S
Fe68         O79   2.050       .  S
Fe68         O84   2.069       .  S
Fe68         O78   1.947       .  S
Fe69         O87   2.079       .  S
Fe69         O74   2.071       .  S
Fe69         O81   2.051       .  S
Fe69         O70   2.080       .  S
Fe69         O78   1.955       .  S
O70          C77   1.270       .  A
O71          C85   1.268       .  A
O72          C77   1.267       .  A
O73          C76   1.274       .  A
O74          C86   1.270       .  A
O75          C88   1.267       .  A
C76          O81   1.271       .  A
C76         C991   1.468       .  S
C77        C1079   1.486       .  S
O79          C82   1.271       .  A
O80          C82   1.273       .  A
C82         C981   1.470       .  S
O83          C88   1.268       .  A
O84          C86   1.270       .  A
C85          O87   1.272       .  A
C85         C947   1.480       .  S
C86        C1201   1.467       .  S
C88        C1013   1.485       .  S
Fe89        O105   2.077       .  S
Fe89         O95   2.044       .  S
Fe89        O102   2.049       .  S
Fe89         O94   2.059       .  S
Fe89        O100   1.973       .  S
Fe90         O93   2.062       .  S
Fe90         O97   2.064       .  S
Fe90        O101   2.071       .  S
Fe90        O106   2.062       .  S
Fe90        O100   1.969       .  S
Fe91        O109   2.069       .  S
Fe91         O96   2.082       .  S
Fe91        O103   2.080       .  S
Fe91         O92   2.082       .  S
Fe91        O100   1.987       .  S
O92          C99   1.269       .  A
O93         C107   1.266       .  A
O94          C99   1.266       .  A
O95          C98   1.269       .  A
O96         C108   1.274       .  A
O97         C110   1.268       .  A
C98         O103   1.275       .  A
C98         C915   1.478       .  S
C99         C859   1.489       .  S
O101        C104   1.270       .  A
O102        C104   1.266       .  A
C104        C881   1.476       .  S
O105        C110   1.270       .  A
O106        C108   1.272       .  A
C107        O109   1.268       .  A
C107        C849   1.481       .  S
C108        C815   1.469       .  S
C110        C925   1.485       .  S
Fe111       O127   2.045       .  S
Fe111       O117   2.046       .  S
Fe111       O124   2.075       .  S
Fe111       O116   2.034       .  S
Fe111       O122   1.970       .  S
Fe112       O115   2.057       .  S
Fe112       O119   2.068       .  S
Fe112       O123   2.058       .  S
Fe112       O128   2.055       .  S
Fe112       O122   1.969       .  S
Fe113       O131   2.086       .  S
Fe113       O118   2.073       .  S
Fe113       O125   2.094       .  S
Fe113       O114   2.090       .  S
Fe113       O122   1.990       .  S
O114        C121   1.276       .  A
O115        C129   1.272       .  A
O116        C121   1.268       .  A
O117        C120   1.263       .  A
O118        C130   1.268       .  A
O119        C132   1.268       .  A
C120        O125   1.270       .  A
C120        C871   1.490       .  S
C121        C783   1.478       .  S
O123        C126   1.267       .  A
O124        C126   1.269       .  A
C126        C793   1.485       .  S
O127        C132   1.263       .  A
O128        C130   1.264       .  A
C129        O131   1.276       .  A
C129       C1311   1.469       .  S
C130        C727   1.479       .  S
C132        C749   1.460       .  S
Fe133       O149   2.050       .  S
Fe133       O139   2.045       .  S
Fe133       O146   2.063       .  S
Fe133       O138   2.040       .  S
Fe133       O144   1.964       .  S
Fe134       O137   2.052       .  S
Fe134       O141   2.070       .  S
Fe134       O145   2.066       .  S
Fe134       O150   2.062       .  S
Fe134       O144   1.968       .  S
Fe135       O153   2.082       .  S
Fe135       O140   2.073       .  S
Fe135       O147   2.085       .  S
Fe135       O136   2.088       .  S
Fe135       O144   1.986       .  S
O136        C143   1.275       .  A
O137        C151   1.270       .  A
O138        C143   1.268       .  A
O139        C142   1.264       .  A
O140        C152   1.270       .  A
O141        C154   1.270       .  A
C142        O147   1.270       .  A
C142        C639   1.486       .  S
C143        C683   1.476       .  S
O145        C148   1.268       .  A
O146        C148   1.268       .  A
C148        C705   1.484       .  S
O149        C154   1.265       .  A
O150        C152   1.268       .  A
C151        O153   1.273       .  A
C151       C1035   1.466       .  S
C152        C617   1.483       .  S
C154        C673   1.472       .  S
Fe155       O171   2.065       .  S
Fe155       O161   2.030       .  S
Fe155       O168   2.037       .  S
Fe155       O160   2.055       .  S
Fe155       O166   1.978       .  S
Fe156       O159   2.069       .  S
Fe156       O163   2.075       .  S
Fe156       O167   2.070       .  S
Fe156       O172   2.057       .  S
Fe156       O166   1.972       .  S
Fe157       O175   2.067       .  S
Fe157       O162   2.080       .  S
Fe157       O169   2.082       .  S
Fe157       O158   2.080       .  S
Fe157       O166   1.992       .  S
O158        C165   1.270       .  A
O159        C173   1.270       .  A
O160        C165   1.267       .  A
O161        C164   1.265       .  A
O162        C174   1.271       .  A
O163        C176   1.268       .  A
C164        O169   1.273       .  A
C164        C573   1.473       .  S
C165        C651   1.488       .  S
O167        C170   1.271       .  A
O168        C170   1.264       .  A
C170        C563   1.460       .  S
O171        C176   1.267       .  A
O172        C174   1.268       .  A
C173        O175   1.270       .  A
C173        C529   1.480       .  S
C174        C827   1.470       .  S
C176        C595   1.488       .  S
Fe177       O193   2.050       .  S
Fe177       O183   2.042       .  S
Fe177       O190   2.065       .  S
Fe177       O182   2.040       .  S
Fe177       O188   1.967       .  S
Fe178       O181   2.057       .  S
Fe178       O185   2.063       .  S
Fe178       O189   2.063       .  S
Fe178       O194   2.050       .  S
Fe178       O188   1.971       .  S
Fe179       O197   2.078       .  S
Fe179       O184   2.083       .  S
Fe179       O191   2.093       .  S
Fe179       O180   2.076       .  S
Fe179       O188   1.991       .  S
O180        C187   1.273       .  A
O181        C195   1.271       .  A
O182        C187   1.269       .  A
O183        C186   1.263       .  A
O184        C196   1.271       .  A
O185        C198   1.268       .  A
C186        O191   1.271       .  A
C186        C485   1.483       .  S
C187       C1223   1.470       .  S
O189        C192   1.267       .  A
O190        C192   1.268       .  A
C192        C959   1.484       .  S
O193        C198   1.266       .  A
O194        C196   1.265       .  A
C195        O197   1.274       .  A
C195        C507   1.464       .  S
C196        C937   1.484       .  S
C198       C1245   1.467       .  S
Fe199       O215   2.053       .  S
Fe199       O205   2.074       .  S
Fe199       O212   2.072       .  S
Fe199       O204   2.049       .  S
Fe199       O210   1.958       .  S
Fe200       O203   2.054       .  S
Fe200       O207   2.079       .  S
Fe200       O211   2.054       .  S
Fe200       O216   2.073       .  S
Fe200       O210   1.950       .  S
Fe201       O219   2.094       .  S
Fe201       O206   2.072       .  S
Fe201       O213   2.051       .  S
Fe201       O202   2.099       .  S
Fe201       O210   1.962       .  S
O202        C209   1.273       .  A
O203        C217   1.268       .  A
O204        C209   1.266       .  A
O205        C208   1.273       .  A
O206        C218   1.271       .  A
O207        C220   1.270       .  A
C208        O213   1.270       .  A
C208       C1355   1.468       .  S
C209        C497   1.489       .  S
O211        C214   1.270       .  A
O212        C214   1.271       .  A
C214       C1377   1.469       .  S
O215        C220   1.267       .  A
O216        C218   1.272       .  A
C217        O219   1.274       .  A
C217       C1145   1.486       .  S
C218        C475   1.468       .  S
C220        C739   1.479       .  S
Fe221       O237   2.056       .  S
Fe221       O227   2.076       .  S
Fe221       O234   2.075       .  S
Fe221       O226   2.053       .  S
Fe221       O232   1.955       .  S
Fe222       O225   2.051       .  S
Fe222       O229   2.057       .  S
Fe222       O233   2.048       .  S
Fe222       O238   2.067       .  S
Fe222       O232   1.945       .  S
Fe223       O241   2.093       .  S
Fe223       O228   2.074       .  S
Fe223       O235   2.056       .  S
Fe223       O224   2.088       .  S
Fe223       O232   1.956       .  S
O224        C231   1.272       .  A
O225        C239   1.266       .  A
O226        C231   1.267       .  A
O227        C230   1.274       .  A
O228        C240   1.270       .  A
O229        C242   1.266       .  A
C230        O235   1.272       .  A
C230        C761   1.476       .  S
C231        C431   1.487       .  S
O233        C236   1.270       .  A
O234        C236   1.273       .  A
C236        C771   1.466       .  S
O237        C242   1.266       .  A
O238        C240   1.269       .  A
C239        O241   1.274       .  A
C239        C717   1.476       .  S
C240        C441   1.467       .  S
C242       C1289   1.470       .  S
Fe243       O259   2.066       .  S
Fe243       O249   2.054       .  S
Fe243       O256   2.059       .  S
Fe243       O248   2.074       .  S
Fe243       O254   1.969       .  S
Fe244       O247   2.070       .  S
Fe244       O251   2.051       .  S
Fe244       O255   2.077       .  S
Fe244       O260   2.062       .  S
Fe244       O254   1.959       .  S
Fe245       O263   2.067       .  S
Fe245       O250   2.074       .  S
Fe245       O257   2.084       .  S
Fe245       O246   2.057       .  S
Fe245       O254   1.972       .  S
O246        C253   1.271       .  A
O247        C261   1.272       .  A
O248        C253   1.273       .  A
O249        C252   1.265       .  A
O250        C262   1.269       .  A
O251        C264   1.269       .  A
C252        O257   1.269       .  A
C252        C419   1.487       .  S
C253        C893   1.461       .  S
O255        C258   1.269       .  A
O256        C258   1.268       .  A
C258        C541   1.484       .  S
O259        C264   1.270       .  A
O260        C262   1.268       .  A
C261        O263   1.272       .  A
C261        C519   1.466       .  S
C262       C1267   1.484       .  S
C264        C903   1.464       .  S
Fe265       O281   2.056       .  S
Fe265       O271   2.055       .  S
Fe265       O278   2.066       .  S
Fe265       O270   2.055       .  S
Fe265       O276   1.955       .  S
Fe266       O269   2.067       .  S
Fe266       O273   2.058       .  S
Fe266       O277   2.071       .  S
Fe266       O282   2.056       .  S
Fe266       O276   1.948       .  S
Fe267       O285   2.073       .  S
Fe267       O272   2.087       .  S
Fe267       O279   2.085       .  S
Fe267       O268   2.064       .  S
Fe267       O276   1.965       .  S
O268        C275   1.273       .  A
O269        C283   1.271       .  A
O270        C275   1.271       .  A
O271        C274   1.267       .  A
O272        C284   1.272       .  A
O273        C286   1.270       .  A
C274        O279   1.270       .  A
C274        C375   1.482       .  S
C275        C551   1.469       .  S
O277        C280   1.269       .  A
O278        C280   1.269       .  A
C280        C837   1.481       .  S
O281        C286   1.267       .  A
O282        C284   1.267       .  A
C283        O285   1.272       .  A
C283        C409   1.465       .  S
C284       C1025   1.480       .  S
C286        C585   1.469       .  S
Fe287       O303   2.063       .  S
Fe287       O293   2.080       .  S
Fe287       O300   2.074       .  S
Fe287       O292   2.044       .  S
Fe287       O298   1.964       .  S
Fe288       O291   2.052       .  S
Fe288       O295   2.079       .  S
Fe288       O299   2.046       .  S
Fe288       O304   2.075       .  S
Fe288       O298   1.947       .  S
Fe289       O307   2.086       .  S
Fe289       O294   2.067       .  S
Fe289       O301   2.050       .  S
Fe289       O290   2.096       .  S
Fe289       O298   1.968       .  S
O290        C297   1.272       .  A
O291        C305   1.266       .  A
O292        C297   1.264       .  A
O293        C296   1.273       .  A
O294        C306   1.273       .  A
O295        C308   1.272       .  A
C296        O301   1.271       .  A
C296        C661   1.464       .  S
C297        C387   1.481       .  S
O299        C302   1.267       .  A
O300        C302   1.270       .  A
C302        C695   1.473       .  S
O303        C308   1.268       .  A
O304        C306   1.274       .  A
C305        O307   1.271       .  A
C305        C805   1.484       .  S
C306        C453   1.468       .  S
C308       C1069   1.486       .  S
Fe309       O325   2.046       .  S
Fe309       O315   2.050       .  S
Fe309       O322   2.071       .  S
Fe309       O314   2.039       .  S
Fe309       O320   1.973       .  S
Fe310       O313   2.051       .  S
Fe310       O317   2.072       .  S
Fe310       O321   2.048       .  S
Fe310       O326   2.065       .  S
Fe310       O320   1.970       .  S
Fe311       O329   2.085       .  S
Fe311       O316   2.077       .  S
Fe311       O323   2.089       .  S
Fe311       O312   2.080       .  S
Fe311       O320   1.988       .  S
O312        C319   1.275       .  A
O313        C327   1.271       .  A
O314        C319   1.268       .  A
O315        C318   1.264       .  A
O316        C328   1.269       .  A
O317        C330   1.269       .  A
C318        O323   1.269       .  A
C318        C353   1.487       .  S
C319        C969   1.468       .  S
O321        C324   1.266       .  A
O322        C324   1.268       .  A
C324       C1167   1.481       .  S
O325        C330   1.265       .  A
O326        C328   1.266       .  A
C327        O329   1.276       .  A
C327        C397   1.470       .  S
C328        C607   1.486       .  S
C330       C1003   1.466       .  S
Fe331       O347   2.077       .  S
Fe331       O337   2.031       .  S
Fe331       O344   2.040       .  S
Fe331       O336   2.047       .  S
Fe331       O342   1.961       .  S
Fe332       O335   2.058       .  S
Fe332       O339   2.067       .  S
Fe332       O343   2.072       .  S
Fe332       O348   2.056       .  S
Fe332       O342   1.961       .  S
Fe333       O351   2.076       .  S
Fe333       O338   2.098       .  S
Fe333       O345   2.097       .  S
Fe333       O334   2.092       .  S
Fe333       O342   1.981       .  S
O334        C341   1.269       .  A
O335        C349   1.265       .  A
O336        C341   1.263       .  A
O337        C340   1.270       .  A
O338        C350   1.279       .  A
O339        C352   1.268       .  A
C340        O345   1.279       .  A
C340       C1113   1.479       .  S
C341        C365   1.487       .  S
O343        C346   1.270       .  A
O344        C346   1.264       .  A
C346       C1123   1.466       .  S
O347        C352   1.270       .  A
O348        C350   1.273       .  A
C349        O351   1.268       .  A
C349       C1399   1.487       .  S
C350        C463   1.476       .  S
C352        C629   1.485       .  S
C353        C354   1.401       .  A
C353        C358   1.405       .  A
C354        C355   1.394       .  A
C354        H367   1.084       .  S
C355        C356   1.414       .  A
C355        H368   1.077       .  S
C356        C362   1.433       .  A
C356        C357   1.423       .  A
C357        C359   1.402       .  A
C357        C358   1.414       .  A
C358        H369   1.084       .  S
C359        C360   1.396       .  A
C359        H370   1.084       .  S
C360        C361   1.402       .  A
C360        H371   1.084       .  S
C361        C362   1.424       .  A
C361        C366   1.415       .  A
C362        C363   1.413       .  A
C363        C364   1.394       .  A
C363        H372   1.077       .  S
C364        C365   1.402       .  A
C364        H373   1.084       .  S
C365        C366   1.405       .  A
C366        H374   1.084       .  S
C375        C376   1.400       .  A
C375        C380   1.404       .  A
C376        C377   1.395       .  A
C376        H389   1.084       .  S
C377        C378   1.415       .  A
C377        H390   1.077       .  S
C378        C384   1.431       .  A
C378        C379   1.422       .  A
C379        C381   1.401       .  A
C379        C380   1.409       .  A
C380        H391   1.084       .  S
C381        C382   1.392       .  A
C381        H392   1.084       .  S
C382        C383   1.400       .  A
C382        H393   1.084       .  S
C383        C384   1.423       .  A
C383        C388   1.410       .  A
C384        C385   1.413       .  A
C385        C386   1.394       .  A
C385        H394   1.077       .  S
C386        C387   1.401       .  A
C386        H395   1.084       .  S
C387        C388   1.403       .  A
C388        H396   1.084       .  S
C397        C398   1.399       .  A
C397        C402   1.397       .  A
C398        C399   1.401       .  A
C398        H411   1.083       .  S
C399        C400   1.417       .  A
C399        H412   1.078       .  S
C400        C406   1.431       .  A
C400        C401   1.423       .  A
C401        C403   1.398       .  A
C401        C402   1.400       .  A
C402        H413   1.085       .  S
C403        C404   1.386       .  A
C403        H414   1.084       .  S
C404        C405   1.398       .  A
C404        H415   1.084       .  S
C405        C406   1.423       .  A
C405        C410   1.399       .  A
C406        C407   1.418       .  A
C407        C408   1.402       .  A
C407        H416   1.078       .  S
C408        C409   1.397       .  A
C408        H417   1.083       .  S
C409        C410   1.396       .  A
C410        H418   1.086       .  S
C419        C420   1.402       .  A
C419        C424   1.403       .  A
C420        C421   1.401       .  A
C420        H433   1.083       .  S
C421        C422   1.416       .  A
C421        H434   1.078       .  S
C422        C428   1.434       .  A
C422        C423   1.422       .  A
C423        C425   1.399       .  A
C423        C424   1.404       .  A
C424        H435   1.085       .  S
C425        C426   1.388       .  A
C425        H436   1.084       .  S
C426        C427   1.399       .  A
C426        H437   1.084       .  S
C427        C428   1.422       .  A
C427        C432   1.404       .  A
C428        C429   1.416       .  A
C429        C430   1.401       .  A
C429        H438   1.078       .  S
C430        C431   1.403       .  A
C430        H439   1.083       .  S
C431        C432   1.403       .  A
C432        H440   1.084       .  S
C441        C442   1.398       .  A
C441        C446   1.396       .  A
C442        C443   1.403       .  A
C442        H455   1.083       .  S
C443        C444   1.419       .  A
C443        H456   1.078       .  S
C444        C450   1.432       .  A
C444        C445   1.423       .  A
C445        C447   1.398       .  A
C445        C446   1.400       .  A
C446        H457   1.086       .  S
C447        C448   1.386       .  A
C447        H458   1.084       .  S
C448        C449   1.397       .  A
C448        H459   1.084       .  S
C449        C450   1.424       .  A
C449        C454   1.401       .  A
C450        C451   1.417       .  A
C451        C452   1.402       .  A
C451        H460   1.078       .  S
C452        C453   1.399       .  A
C452        H461   1.084       .  S
C453        C454   1.395       .  A
C454        H462   1.085       .  S
C463        C464   1.399       .  A
C463        C468   1.400       .  A
C464        C465   1.402       .  A
C464        H477   1.083       .  S
C465        C466   1.417       .  A
C465        H478   1.078       .  S
C466        C472   1.432       .  A
C466        C467   1.423       .  A
C467        C469   1.399       .  A
C467        C468   1.403       .  A
C468        H479   1.085       .  S
C469        C470   1.388       .  A
C469        H480   1.084       .  S
C470        C471   1.399       .  A
C470        H481   1.084       .  S
C471        C472   1.423       .  A
C471        C476   1.401       .  A
C472        C473   1.419       .  A
C473        C474   1.402       .  A
C473        H482   1.078       .  S
C474        C475   1.397       .  A
C474        H483   1.083       .  S
C475        C476   1.398       .  A
C476        H484   1.086       .  S
C485        C486   1.401       .  A
C485        C490   1.403       .  A
C486        C487   1.393       .  A
C486        H499   1.084       .  S
C487        C488   1.413       .  A
C487        H500   1.077       .  S
C488        C494   1.433       .  A
C488        C489   1.424       .  A
C489        C491   1.401       .  A
C489        C490   1.414       .  A
C490        H501   1.084       .  S
C491        C492   1.395       .  A
C491        H502   1.084       .  S
C492        C493   1.401       .  A
C492        H503   1.084       .  S
C493        C494   1.422       .  A
C493        C498   1.413       .  A
C494        C495   1.414       .  A
C495        C496   1.395       .  A
C495        H504   1.077       .  S
C496        C497   1.402       .  A
C496        H505   1.083       .  S
C497        C498   1.406       .  A
C498        H506   1.084       .  S
C507        C508   1.396       .  A
C507        C512   1.397       .  A
C508        C509   1.399       .  A
C508        H521   1.084       .  S
C509        C510   1.418       .  A
C509        H522   1.077       .  S
C510        C516   1.430       .  A
C510        C511   1.423       .  A
C511        C513   1.400       .  A
C511        C512   1.402       .  A
C512        H523   1.086       .  S
C513        C514   1.389       .  A
C513        H524   1.084       .  S
C514        C515   1.399       .  A
C514        H525   1.084       .  S
C515        C516   1.424       .  A
C515        C520   1.404       .  A
C516        C517   1.415       .  A
C517        C518   1.397       .  A
C517        H526   1.077       .  S
C518        C519   1.397       .  A
C518        H527   1.084       .  S
C519        C520   1.398       .  A
C520        H528   1.085       .  S
C529        C530   1.401   1_565  A
C529        C534   1.402       .  A
C530        C531   1.395       .  A
C530        H543   1.084       .  S
C531        C532   1.414       .  A
C531        H544   1.078       .  S
C532        C538   1.430       .  A
C532        C533   1.422       .  A
C533        C535   1.400       .  A
C533        C534   1.408   1_545  A
C534        H545   1.085       .  S
C535        C536   1.392       .  A
C535        H546   1.084       .  S
C536        C537   1.400       .  A
C536        H547   1.084       .  S
C537        C538   1.423       .  A
C537        C542   1.409       .  A
C538        C539   1.414       .  A
C539        C540   1.395       .  A
C539        H548   1.078       .  S
C540        C541   1.402       .  A
C540        H549   1.083       .  S
C541        C542   1.403       .  A
C542        H550   1.084       .  S
C551        C552   1.397       .  A
C551        C556   1.400       .  A
C552        C553   1.397       .  A
C552        H565   1.083       .  S
C553        C554   1.418       .  A
C553        H566   1.077       .  S
C554        C560   1.424       .  A
C554        C555   1.420       .  A
C555        C557   1.399       .  A
C555        C556   1.394       .  A
C556        H567   1.085       .  S
C557        C558   1.385       .  A
C557        H568   1.084       .  S
C558        C559   1.397       .  A
C558        H569   1.084       .  S
C559        C560   1.425       .  A
C559        C564   1.399       .  A
C560        C561   1.413       .  A
C561        C562   1.392   1_554  A
C561        H570   1.077       .  S
C562        C563   1.398       .  A
C562        H571   1.084       .  S
C563        C564   1.394   1_556  A
C564        H572   1.085       .  S
C573        C574   1.398       .  A
C573        C578   1.401       .  A
C574        C575   1.400       .  A
C574        H587   1.083       .  S
C575        C576   1.418       .  A
C575        H588   1.077       .  S
C576        C582   1.426       .  A
C576        C577   1.420       .  A
C577        C579   1.398       .  A
C577        C578   1.394       .  A
C578        H589   1.085       .  S
C579        C580   1.384       .  A
C579        H590   1.084       .  S
C580        C581   1.396       .  A
C580        H591   1.084       .  S
C581        C582   1.424       .  A
C581        C586   1.398       .  A
C582        C583   1.413       .  A
C583        C584   1.395       .  A
C583        H592   1.078       .  S
C584        C585   1.401       .  A
C584        H593   1.083       .  S
C585        C586   1.396       .  A
C586        H594   1.085       .  S
C595        C596   1.403       .  A
C595        C600   1.403       .  A
C596        C597   1.403       .  A
C596        H609   1.083       .  S
C597        C598   1.417       .  A
C597        H610   1.078       .  S
C598        C604   1.435       .  A
C598        C599   1.422       .  A
C599        C601   1.399       .  A
C599        C600   1.406       .  A
C600        H611   1.084       .  S
C601        C602   1.389       .  A
C601        H612   1.084       .  S
C602        C603   1.399       .  A
C602        H613   1.084       .  S
C603        C604   1.423       .  A
C603        C608   1.406       .  A
C604        C605   1.416       .  A
C605        C606   1.402       .  A
C605        H614   1.078       .  S
C606        C607   1.403       .  A
C606        H615   1.083       .  S
C607        C608   1.401       .  A
C608        H616   1.085       .  S
C617        C618   1.401   1_655  A
C617        C622   1.403       .  A
C618        C619   1.398       .  A
C618        H631   1.083   1_455  S
C619        C620   1.416       .  A
C619        H632   1.077       .  S
C620        C626   1.432       .  A
C620        C621   1.422       .  A
C621        C623   1.400       .  A
C621        C622   1.406   1_455  A
C622        H633   1.085       .  S
C623        C624   1.391       .  A
C623        H634   1.084       .  S
C624        C625   1.400       .  A
C624        H635   1.084       .  S
C625        C626   1.424       .  A
C625        C630   1.409       .  A
C626        C627   1.413       .  A
C627        C628   1.396       .  A
C627        H636   1.077       .  S
C628        C629   1.402       .  A
C628        H637   1.083       .  S
C629        C630   1.403       .  A
C630        H638   1.084       .  S
C639        C640   1.401       .  A
C639        C644   1.403       .  A
C640        C641   1.404       .  A
C640        H653   1.083       .  S
C641        C642   1.418       .  A
C641        H654   1.078       .  S
C642        C648   1.434       .  A
C642        C643   1.422       .  A
C643        C645   1.398       .  A
C643        C644   1.400       .  A
C644        H655   1.085       .  S
C645        C646   1.386       .  A
C645        H656   1.084       .  S
C646        C647   1.398       .  A
C646        H657   1.084       .  S
C647        C648   1.423       .  A
C647        C652   1.402       .  A
C648        C649   1.416       .  A
C649        C650   1.403       .  A
C649        H658   1.078       .  S
C650        C651   1.403       .  A
C650        H659   1.083       .  S
C651        C652   1.402       .  A
C652        H660   1.085       .  S
C661        C662   1.397       .  A
C661        C666   1.396       .  A
C662        C663   1.398       .  A
C662        H675   1.083       .  S
C663        C664   1.417       .  A
C663        H676   1.077       .  S
C664        C670   1.427       .  A
C664        C665   1.422       .  A
C665        C667   1.398       .  A
C665        C666   1.397       .  A
C666        H677   1.086       .  S
C667        C668   1.385       .  A
C667        H678   1.084       .  S
C668        C669   1.398       .  A
C668        H679   1.084       .  S
C669        C670   1.422       .  A
C669        C674   1.399       .  A
C670        C671   1.415       .  A
C671        C672   1.397       .  A
C671        H680   1.078       .  S
C672        C673   1.400   1_554  A
C672        H681   1.083   1_554  S
C673        C674   1.398   1_556  A
C674        H682   1.085   1_554  S
C683        C684   1.399       .  A
C683        C688   1.401       .  A
C684        C685   1.400       .  A
C684        H697   1.083       .  S
C685        C686   1.417       .  A
C685        H698   1.078       .  S
C686        C692   1.428       .  A
C686        C687   1.421       .  A
C687        C689   1.398       .  A
C687        C688   1.397       .  A
C688        H699   1.085       .  S
C689        C690   1.385       .  A
C689        H700   1.084       .  S
C690        C691   1.397       .  A
C690        H701   1.084       .  S
C691        C692   1.423       .  A
C691        C696   1.398       .  A
C692        C693   1.416       .  A
C693        C694   1.399       .  A
C693        H702   1.078       .  S
C694        C695   1.400       .  A
C694        H703   1.083       .  S
C695        C696   1.399       .  A
C696        H704   1.085       .  S
C705        C706   1.402       .  A
C705        C710   1.402       .  A
C706        C707   1.402       .  A
C706        H719   1.083       .  S
C707        C708   1.417       .  A
C707        H720   1.078       .  S
C708        C714   1.432       .  A
C708        C709   1.421       .  A
C709        C711   1.398       .  A
C709        C710   1.399       .  A
C710        H721   1.084       .  S
C711        C712   1.385       .  A
C711        H722   1.084       .  S
C712        C713   1.397       .  A
C712        H723   1.084       .  S
C713        C714   1.424       .  A
C713        C718   1.401       .  A
C714        C715   1.416       .  A
C715        C716   1.400       .  A
C715        H724   1.078       .  S
C716        C717   1.401       .  A
C716        H725   1.083       .  S
C717        C718   1.398       .  A
C718        H726   1.085       .  S
C727        C728   1.401       .  A
C727        C732   1.400   1_655  A
C728        C729   1.399   1_655  A
C728        H741   1.084       .  S
C729        C730   1.415       .  A
C729        H742   1.077       .  S
C730        C736   1.432       .  A
C730        C731   1.424       .  A
C731        C733   1.399       .  A
C731        C732   1.405       .  A
C732        H743   1.085       .  S
C733        C734   1.388       .  A
C733        H744   1.084       .  S
C734        C735   1.399       .  A
C734        H745   1.084       .  S
C735        C736   1.422       .  A
C735        C740   1.403       .  A
C736        C737   1.417       .  A
C737        C738   1.400       .  A
C737        H746   1.078       .  S
C738        C739   1.400       .  A
C738        H747   1.083       .  S
C739        C740   1.401       .  A
C740        H748   1.085       .  S
C749        C750   1.396       .  A
C749        C754   1.395       .  A
C750        C751   1.396   1_554  A
C750        H763   1.084       .  S
C751        C752   1.416       .  A
C751        H764   1.078       .  S
C752        C758   1.426       .  A
C752        C753   1.423       .  A
C753        C755   1.398       .  A
C753        C754   1.399   1_556  A
C754        H765   1.085       .  S
C755        C756   1.387       .  A
C755        H766   1.084   1_556  S
C756        C757   1.399       .  A
C756        H767   1.084       .  S
C757        C758   1.422       .  A
C757        C762   1.400       .  A
C758        C759   1.414       .  A
C759        C760   1.395       .  A
C759        H768   1.078       .  S
C760        C761   1.401       .  A
C760        H769   1.083       .  S
C761        C762   1.400       .  A
C762        H770   1.085       .  S
C771        C772   1.396       .  A
C771        C776   1.401       .  A
C772        C773   1.389       .  A
C772        H785   1.084       .  S
C773        C774   1.415       .  A
C773        H786   1.077       .  S
C774        C780   1.423       .  A
C774        C775   1.421       .  A
C775        C777   1.401       .  A
C775        C776   1.404       .  A
C776        H787   1.085       .  S
C777        C778   1.392       .  A
C777        H788   1.084       .  S
C778        C779   1.400       .  A
C778        H789   1.084       .  S
C779        C780   1.424       .  A
C779        C784   1.409       .  A
C780        C781   1.408       .  A
C781        C782   1.385       .  A
C781        H790   1.077       .  S
C782        C783   1.403       .  A
C782        H791   1.084       .  S
C783        C784   1.402       .  A
C784        H792   1.084       .  S
C793        C794   1.402       .  A
C793        C798   1.404       .  A
C794        C795   1.396       .  A
C794        H807   1.083       .  S
C795        C796   1.415       .  A
C795        H808   1.076       .  S
C796        C802   1.431       .  A
C796        C797   1.422       .  A
C797        C799   1.400       .  A
C797        C798   1.406       .  A
C798        H809   1.084       .  S
C799        C800   1.391       .  A
C799        H810   1.084       .  S
C800        C801   1.400       .  A
C800        H811   1.084       .  S
C801        C802   1.422       .  A
C801        C806   1.407       .  A
C802        C803   1.414       .  A
C803        C804   1.396       .  A
C803        H812   1.076       .  S
C804        C805   1.402       .  A
C804        H813   1.083       .  S
C805        C806   1.404       .  A
C806        H814   1.084       .  S
C815        C816   1.397       .  A
C815        C820   1.399       .  A
C816        C817   1.399       .  A
C816        H829   1.084       .  S
C817        C818   1.417       .  A
C817        H830   1.078   1_554  S
C818        C824   1.431       .  A
C818        C819   1.424       .  A
C819        C821   1.400   1_545  A
C819        C820   1.405       .  A
C820        H831   1.085       .  S
C821        C822   1.390       .  A
C821        H832   1.084       .  S
C822        C823   1.399       .  A
C822        H833   1.084       .  S
C823        C824   1.423   1_565  A
C823        C828   1.405   1_554  A
C824        C825   1.416   1_554  A
C825        C826   1.399   1_545  A
C825        H834   1.078       .  S
C826        C827   1.398       .  A
C826        H835   1.084       .  S
C827        C828   1.399       .  A
C828        H836   1.085   1_556  S
C837        C838   1.400       .  A
C837        C842   1.403       .  A
C838        C839   1.398       .  A
C838        H851   1.083       .  S
C839        C840   1.415       .  A
C839        H852   1.078       .  S
C840        C846   1.430       .  A
C840        C841   1.422       .  A
C841        C843   1.400       .  A
C841        C842   1.406       .  A
C842        H853   1.085       .  S
C843        C844   1.392   1_565  A
C843        H854   1.084       .  S
C844        C845   1.400       .  A
C844        H855   1.084       .  S
C845        C846   1.422   1_545  A
C845        C850   1.407       .  A
C846        C847   1.414   1_565  A
C847        C848   1.397       .  A
C847        H856   1.078   1_545  S
C848        C849   1.401       .  A
C848        H857   1.083       .  S
C849        C850   1.403       .  A
C850        H858   1.085       .  S
C859        C860   1.403       .  A
C859        C864   1.402       .  A
C860        C861   1.405       .  A
C860        H873   1.083       .  S
C861        C862   1.417       .  A
C861        H874   1.078       .  S
C862        C868   1.437       .  A
C862        C863   1.423       .  A
C863        C865   1.398       .  A
C863        C864   1.404       .  A
C864        H875   1.085       .  S
C865        C866   1.387       .  A
C865        H876   1.084       .  S
C866        C867   1.399       .  A
C866        H877   1.084       .  S
C867        C868   1.422       .  A
C867        C872   1.403       .  A
C868        C869   1.419       .  A
C869        C870   1.407       .  A
C869        H878   1.078       .  S
C870        C871   1.403       .  A
C870        H879   1.083       .  S
C871        C872   1.403       .  A
C872        H880   1.085       .  S
C881        C882   1.401       .  A
C881        C886   1.400       .  A
C882        C883   1.396   1_554  A
C882        H895   1.083       .  S
C883        C884   1.414       .  A
C883        H896   1.077       .  S
C884        C890   1.427       .  A
C884        C885   1.422       .  A
C885        C887   1.398       .  A
C885        C886   1.401   1_556  A
C886        H897   1.085       .  S
C887        C888   1.387       .  A
C887        H898   1.084       .  S
C888        C889   1.398       .  A
C888        H899   1.084       .  S
C889        C890   1.423       .  A
C889        C894   1.399       .  A
C890        C891   1.417       .  A
C891        C892   1.397       .  A
C891        H900   1.077       .  S
C892        C893   1.396       .  A
C892        H901   1.083       .  S
C893        C894   1.396       .  A
C894        H902   1.085       .  S
C903        C904   1.397       .  A
C903        C908   1.396       .  A
C904        C905   1.396       .  A
C904        H917   1.084       .  S
C905        C906   1.416       .  A
C905        H918   1.078       .  S
C906        C912   1.427       .  A
C906        C907   1.423       .  A
C907        C909   1.397       .  A
C907        C908   1.398       .  A
C908        H919   1.085       .  S
C909        C910   1.385       .  A
C909        H920   1.084       .  S
C910        C911   1.399       .  A
C910        H921   1.084       .  S
C911        C912   1.421       .  A
C911        C916   1.397       .  A
C912        C913   1.416       .  A
C913        C914   1.398       .  A
C913        H922   1.077       .  S
C914        C915   1.400       .  A
C914        H923   1.083       .  S
C915        C916   1.402       .  A
C916        H924   1.085       .  S
C925        C926   1.401       .  A
C925        C930   1.403       .  A
C926        C927   1.398       .  A
C926        H939   1.083       .  S
C927        C928   1.416       .  A
C927        H940   1.077       .  S
C928        C934   1.433       .  A
C928        C929   1.422       .  A
C929        C931   1.400       .  A
C929        C930   1.407       .  A
C930        H941   1.084       .  S
C931        C932   1.391       .  A
C931        H942   1.084       .  S
C932        C933   1.399       .  A
C932        H943   1.084       .  S
C933        C934   1.424       .  A
C933        C938   1.409       .  A
C934        C935   1.414       .  A
C935        C936   1.396       .  A
C935        H944   1.077       .  S
C936        C937   1.403       .  A
C936        H945   1.084       .  S
C937        C938   1.402       .  A
C938        H946   1.084       .  S
C947        C948   1.401   1_565  A
C947        C952   1.403       .  A
C948        C949   1.392       .  A
C948        H961   1.083       .  S
C949        C950   1.413       .  A
C949        H962   1.077       .  S
C950        C956   1.429       .  A
C950        C951   1.422       .  A
C951        C953   1.400       .  A
C951        C952   1.407   1_545  A
C952        H963   1.084       .  S
C953        C954   1.392       .  A
C953        H964   1.084       .  S
C954        C955   1.400       .  A
C954        H965   1.084       .  S
C955        C956   1.422       .  A
C955        C960   1.408       .  A
C956        C957   1.413       .  A
C957        C958   1.393       .  A
C957        H966   1.077       .  S
C958        C959   1.402       .  A
C958        H967   1.083       .  S
C959        C960   1.404       .  A
C960        H968   1.084       .  S
C969        C970   1.396       .  A
C969        C974   1.400       .  A
C970        C971   1.397       .  A
C970        H983   1.083       .  S
C971        C972   1.417       .  A
C971        H984   1.077       .  S
C972        C978   1.425       .  A
C972        C973   1.421       .  A
C973        C975   1.399       .  A
C973        C974   1.396       .  A
C974        H985   1.085       .  S
C975        C976   1.386       .  A
C975        H986   1.084       .  S
C976        C977   1.398       .  A
C976        H987   1.084       .  S
C977        C978   1.423       .  A
C977        C982   1.398   1_556  A
C978        C979   1.414   1_556  A
C979        C980   1.394       .  A
C979        H988   1.077       .  S
C980        C981   1.400       .  A
C980        H989   1.083       .  S
C981        C982   1.399       .  A
C982        H990   1.085       .  S
C991        C992   1.398       .  A
C991        C996   1.399       .  A
C992        C993   1.395       .  A
C992       H1005   1.083       .  S
C993        C994   1.416       .  A
C993       H1006   1.077       .  S
C994       C1000   1.426       .  A
C994        C995   1.422       .  A
C995        C997   1.399       .  A
C995        C996   1.399       .  A
C996       H1007   1.085       .  S
C997        C998   1.388       .  A
C997       H1008   1.084       .  S
C998        C999   1.398       .  A
C998       H1009   1.084       .  S
C999       C1000   1.423       .  A
C999       C1004   1.401       .  A
C1000      C1001   1.415       .  A
C1001      C1002   1.394       .  A
C1001      H1010   1.077       .  S
C1002      C1003   1.397       .  A
C1002      H1011   1.084       .  S
C1003      C1004   1.397       .  A
C1004      H1012   1.085       .  S
C1013      C1014   1.402       .  A
C1013      C1018   1.403       .  A
C1014      C1015   1.395       .  A
C1014      H1027   1.083       .  S
C1015      C1016   1.413       .  A
C1015      H1028   1.077       .  S
C1016      C1022   1.431       .  A
C1016      C1017   1.424       .  A
C1017      C1019   1.400       .  A
C1017      C1018   1.408       .  A
C1018      H1029   1.084       .  S
C1019      C1020   1.391       .  A
C1019      H1030   1.084       .  S
C1020      C1021   1.400       .  A
C1020      H1031   1.084       .  S
C1021      C1022   1.422       .  A
C1021      C1026   1.405       .  A
C1022      C1023   1.417       .  A
C1023      C1024   1.398       .  A
C1023      H1032   1.077       .  S
C1024      C1025   1.400       .  A
C1024      H1033   1.083       .  S
C1025      C1026   1.403       .  A
C1026      H1034   1.085       .  S
C1035      C1036   1.396       .  A
C1035      C1040   1.400       .  A
C1036      C1037   1.393   1_556  A
C1036      H1049   1.084       .  S
C1037      C1038   1.415   1_655  A
C1037      H1050   1.077       .  S
C1038      C1044   1.427       .  A
C1038      C1039   1.423   1_554  A
C1039      C1041   1.400       .  A
C1039      C1040   1.406   1_455  A
C1040      H1051   1.085       .  S
C1041      C1042   1.391       .  A
C1041      H1052   1.084       .  S
C1042      C1043   1.400   1_556  A
C1042      H1053   1.084       .  S
C1043      C1044   1.424       .  A
C1043      C1048   1.406       .  A
C1044      C1045   1.415       .  A
C1045      C1046   1.392       .  A
C1045      H1054   1.077   1_455  S
C1046      C1047   1.395       .  A
C1046      H1055   1.084       .  S
C1047      C1048   1.398       .  A
C1048      H1056   1.085       .  S
C1057      C1058   1.403       .  A
C1057      C1062   1.402       .  A
C1058      C1059   1.399   1_455  A
C1058      H1071   1.083       .  S
C1059      C1060   1.414       .  A
C1059      H1072   1.078       .  S
C1060      C1066   1.433       .  A
C1060      C1061   1.423   1_655  A
C1061      C1063   1.399   1_455  A
C1061      C1062   1.407       .  A
C1062      H1073   1.084       .  S
C1063      C1064   1.390       .  A
C1063      H1074   1.084   1_655  S
C1064      C1065   1.399       .  A
C1064      H1075   1.084       .  S
C1065      C1066   1.422       .  A
C1065      C1070   1.406       .  A
C1066      C1067   1.416       .  A
C1067      C1068   1.400       .  A
C1067      H1076   1.078       .  S
C1068      C1069   1.403       .  A
C1068      H1077   1.083       .  S
C1069      C1070   1.402       .  A
C1070      H1078   1.084       .  S
C1079      C1080   1.402       .  A
C1079      C1084   1.403       .  A
C1080      C1081   1.400       .  A
C1080      H1093   1.083       .  S
C1081      C1082   1.415       .  A
C1081      H1094   1.078       .  S
C1082      C1088   1.433       .  A
C1082      C1083   1.423       .  A
C1083      C1085   1.399       .  A
C1083      C1084   1.405       .  A
C1084      H1095   1.085       .  S
C1085      C1086   1.389       .  A
C1085      H1096   1.084       .  S
C1086      C1087   1.399       .  A
C1086      H1097   1.084       .  S
C1087      C1088   1.422       .  A
C1087      C1092   1.404       .  A
C1088      C1089   1.417       .  A
C1089      C1090   1.401       .  A
C1089      H1098   1.078       .  S
C1090      C1091   1.402       .  A
C1090      H1099   1.083       .  S
C1091      C1092   1.403       .  A
C1092      H1100   1.084       .  S
C1101      C1102   1.396       .  A
C1101      C1106   1.400       .  A
C1102      C1103   1.389   1_554  A
C1102      H1115   1.084       .  S
C1103      C1104   1.415       .  A
C1103      H1116   1.077       .  S
C1104      C1110   1.424       .  A
C1104      C1105   1.421       .  A
C1105      C1107   1.401       .  A
C1105      C1106   1.405   1_556  A
C1106      H1117   1.085       .  S
C1107      C1108   1.392       .  A
C1107      H1118   1.084   1_556  S
C1108      C1109   1.400       .  A
C1108      H1119   1.084       .  S
C1109      C1110   1.424       .  A
C1109      C1114   1.409       .  A
C1110      C1111   1.409       .  A
C1111      C1112   1.385       .  A
C1111      H1120   1.077       .  S
C1112      C1113   1.403       .  A
C1112      H1121   1.083       .  S
C1113      C1114   1.402       .  A
C1114      H1122   1.084       .  S
C1123      C1124   1.399       .  A
C1123      C1128   1.397       .  A
C1124      C1125   1.395       .  A
C1124      H1137   1.084       .  S
C1125      C1126   1.415       .  A
C1125      H1138   1.078       .  S
C1126      C1132   1.425       .  A
C1126      C1127   1.422       .  A
C1127      C1129   1.397       .  A
C1127      C1128   1.397       .  A
C1128      H1139   1.085       .  S
C1129      C1130   1.385       .  A
C1129      H1140   1.084       .  S
C1130      C1131   1.398       .  A
C1130      H1141   1.084       .  S
C1131      C1132   1.422       .  A
C1131      C1136   1.397       .  A
C1132      C1133   1.416       .  A
C1133      C1134   1.396       .  A
C1133      H1142   1.078       .  S
C1134      C1135   1.397       .  A
C1134      H1143   1.083       .  S
C1135      C1136   1.396       .  A
C1136      H1144   1.085       .  S
C1145      C1146   1.402       .  A
C1145      C1150   1.404       .  A
C1146      C1147   1.398       .  A
C1146      H1159   1.083       .  S
C1147      C1148   1.416       .  A
C1147      H1160   1.077       .  S
C1148      C1154   1.432       .  A
C1148      C1149   1.422       .  A
C1149      C1151   1.400       .  A
C1149      C1150   1.406       .  A
C1150      H1161   1.084       .  S
C1151      C1152   1.391       .  A
C1151      H1162   1.084       .  S
C1152      C1153   1.399       .  A
C1152      H1163   1.084       .  S
C1153      C1154   1.424       .  A
C1153      C1158   1.408       .  A
C1154      C1155   1.414       .  A
C1155      C1156   1.397       .  A
C1155      H1164   1.077       .  S
C1156      C1157   1.402       .  A
C1156      H1165   1.083       .  S
C1157      C1158   1.401       .  A
C1158      H1166   1.084       .  S
C1167      C1168   1.401       .  A
C1167      C1172   1.403       .  A
C1168      C1169   1.391       .  A
C1168      H1181   1.083       .  S
C1169      C1170   1.413       .  A
C1169      H1182   1.077       .  S
C1170      C1176   1.427   1_565  A
C1170      C1171   1.422       .  A
C1171      C1173   1.400       .  A
C1171      C1172   1.405       .  A
C1172      H1183   1.084       .  S
C1173      C1174   1.390       .  A
C1173      H1184   1.084       .  S
C1174      C1175   1.400   1_565  A
C1174      H1185   1.084       .  S
C1175      C1176   1.422       .  A
C1175      C1180   1.403       .  A
C1176      C1177   1.415       .  A
C1177      C1178   1.393       .  A
C1177      H1186   1.077       .  S
C1178      C1179   1.398       .  A
C1178      H1187   1.084       .  S
C1179      C1180   1.402       .  A
C1180      H1188   1.085       .  S
C1189      C1190   1.398       .  A
C1189      C1194   1.396       .  A
C1190      C1191   1.402       .  A
C1190      H1203   1.083       .  S
C1191      C1192   1.417   1_556  A
C1191      H1204   1.078       .  S
C1192      C1198   1.431       .  A
C1192      C1193   1.424       .  A
C1193      C1195   1.397       .  A
C1193      C1194   1.399   1_554  A
C1194      H1205   1.085       .  S
C1195      C1196   1.385       .  A
C1195      H1206   1.084       .  S
C1196      C1197   1.398       .  A
C1196      H1207   1.084       .  S
C1197      C1198   1.423       .  A
C1197      C1202   1.398       .  A
C1198      C1199   1.419   1_545  A
C1199      C1200   1.403       .  A
C1199      H1208   1.078       .  S
C1200      C1201   1.397       .  A
C1200      H1209   1.083       .  S
C1201      C1202   1.397   1_565  A
C1202      H1210   1.086       .  S
C1211      C1212   1.399       .  A
C1211      C1216   1.396   1_556  A
C1212      C1213   1.399   1_556  A
C1212      H1225   1.083       .  S
C1213      C1214   1.416       .  A
C1213      H1226   1.078       .  S
C1214      C1220   1.427       .  A
C1214      C1215   1.423       .  A
C1215      C1217   1.396       .  A
C1215      C1216   1.394       .  A
C1216      H1227   1.085       .  S
C1217      C1218   1.382       .  A
C1217      H1228   1.084       .  S
C1218      C1219   1.397       .  A
C1218      H1229   1.084       .  S
C1219      C1220   1.421       .  A
C1219      C1224   1.393       .  A
C1220      C1221   1.417       .  A
C1221      C1222   1.400       .  A
C1221      H1230   1.078       .  S
C1222      C1223   1.399       .  A
C1222      H1231   1.083       .  S
C1223      C1224   1.398       .  A
C1224      H1232   1.085       .  S
C1233      C1234   1.397       .  A
C1233      C1238   1.397       .  A
C1234      C1235   1.395       .  A
C1234      H1247   1.084       .  S
C1235      C1236   1.415       .  A
C1235      H1248   1.077       .  S
C1236      C1242   1.426       .  A
C1236      C1237   1.423       .  A
C1237      C1239   1.398       .  A
C1237      C1238   1.400       .  A
C1238      H1249   1.085       .  S
C1239      C1240   1.387       .  A
C1239      H1250   1.084       .  S
C1240      C1241   1.398       .  A
C1240      H1251   1.084       .  S
C1241      C1242   1.422       .  A
C1241      C1246   1.400       .  A
C1242      C1243   1.416       .  A
C1243      C1244   1.395       .  A
C1243      H1252   1.077       .  S
C1244      C1245   1.397       .  A
C1244      H1253   1.084       .  S
C1245      C1246   1.398       .  A
C1246      H1254   1.085       .  S
C1255      C1256   1.400       .  A
C1255      C1260   1.402       .  A
C1256      C1257   1.397       .  A
C1256      H1269   1.083       .  S
C1257      C1258   1.415       .  A
C1257      H1270   1.078       .  S
C1258      C1264   1.431       .  A
C1258      C1259   1.422       .  A
C1259      C1261   1.400       .  A
C1259      C1260   1.406       .  A
C1260      H1271   1.085       .  S
C1261      C1262   1.390       .  A
C1261      H1272   1.084       .  S
C1262      C1263   1.399       .  A
C1262      H1273   1.084       .  S
C1263      C1264   1.423       .  A
C1263      C1268   1.406       .  A
C1264      C1265   1.414       .  A
C1265      C1266   1.396       .  A
C1265      H1274   1.078       .  S
C1266      C1267   1.403       .  A
C1266      H1275   1.083       .  S
C1267      C1268   1.402       .  A
C1268      H1276   1.085       .  S
C1277      C1278   1.398       .  A
C1277      C1282   1.399       .  A
C1278      C1279   1.394       .  A
C1278      H1291   1.084       .  S
C1279      C1280   1.415   1_455  A
C1279      H1292   1.077       .  S
C1280      C1286   1.426       .  A
C1280      C1281   1.422   1_655  A
C1281      C1283   1.399   1_455  A
C1281      C1282   1.402       .  A
C1282      H1293   1.085       .  S
C1283      C1284   1.389       .  A
C1283      H1294   1.084       .  S
C1284      C1285   1.399       .  A
C1284      H1295   1.084       .  S
C1285      C1286   1.423       .  A
C1285      C1290   1.403       .  A
C1286      C1287   1.414       .  A
C1287      C1288   1.393       .  A
C1287      H1296   1.077       .  S
C1288      C1289   1.399       .  A
C1288      H1297   1.084       .  S
C1289      C1290   1.399       .  A
C1290      H1298   1.085       .  S
C1299      C1300   1.397       .  A
C1299      C1304   1.397       .  A
C1300      C1301   1.398   1_556  A
C1300      H1313   1.084       .  S
C1301      C1302   1.416       .  A
C1301      H1314   1.078       .  S
C1302      C1308   1.430       .  A
C1302      C1303   1.424   1_554  A
C1303      C1305   1.399   1_455  A
C1303      C1304   1.404       .  A
C1304      H1315   1.085       .  S
C1305      C1306   1.389       .  A
C1305      H1316   1.084       .  S
C1306      C1307   1.399   1_556  A
C1306      H1317   1.084       .  S
C1307      C1308   1.422   1_655  A
C1307      C1312   1.404       .  A
C1308      C1309   1.416       .  A
C1309      C1310   1.399   1_455  A
C1309      H1318   1.078       .  S
C1310      C1311   1.398       .  A
C1310      H1319   1.084       .  S
C1311      C1312   1.399       .  A
C1312      H1320   1.085       .  S
C1321      C1322   1.401       .  A
C1321      C1326   1.399       .  A
C1322      C1323   1.401       .  A
C1322      H1335   1.083       .  S
C1323      C1324   1.417       .  A
C1323      H1336   1.078       .  S
C1324      C1330   1.431       .  A
C1324      C1325   1.422       .  A
C1325      C1327   1.398       .  A
C1325      C1326   1.399       .  A
C1326      H1337   1.085       .  S
C1327      C1328   1.386       .  A
C1327      H1338   1.084       .  S
C1328      C1329   1.398       .  A
C1328      H1339   1.084       .  S
C1329      C1330   1.423       .  A
C1329      C1334   1.401       .  A
C1330      C1331   1.416       .  A
C1331      C1332   1.400       .  A
C1331      H1340   1.078       .  S
C1332      C1333   1.402       .  A
C1332      H1341   1.083       .  S
C1333      C1334   1.400       .  A
C1334      H1342   1.085       .  S
C1343      C1344   1.397   1_556  A
C1343      C1348   1.396   1_556  A
C1344      C1345   1.395       .  A
C1344      H1357   1.084   1_554  S
C1345      C1346   1.416       .  A
C1345      H1358   1.077       .  S
C1346      C1352   1.425       .  A
C1346      C1347   1.423       .  A
C1347      C1349   1.398       .  A
C1347      C1348   1.398       .  A
C1348      H1359   1.085   1_554  S
C1349      C1350   1.386       .  A
C1349      H1360   1.084       .  S
C1350      C1351   1.398       .  A
C1350      H1361   1.084       .  S
C1351      C1352   1.423       .  A
C1351      C1356   1.399       .  A
C1352      C1353   1.415       .  A
C1353      C1354   1.395       .  A
C1353      H1362   1.077       .  S
C1354      C1355   1.398       .  A
C1354      H1363   1.084       .  S
C1355      C1356   1.398       .  A
C1356      H1364   1.085       .  S
C1365      C1366   1.403       .  A
C1365      C1370   1.403       .  A
C1366      C1367   1.386       .  A
C1366      H1379   1.083       .  S
C1367      C1368   1.409       .  A
C1367      H1380   1.074       .  S
C1368      C1374   1.424       .  A
C1368      C1369   1.423       .  A
C1369      C1371   1.400       .  A
C1369      C1370   1.409       .  A
C1370      H1381   1.084       .  S
C1371      C1372   1.393       .  A
C1371      H1382   1.084       .  S
C1372      C1373   1.401       .  A
C1372      H1383   1.084       .  S
C1373      C1374   1.421       .  A
C1373      C1378   1.405       .  A
C1374      C1375   1.415       .  A
C1375      C1376   1.391       .  A
C1375      H1384   1.074       .  S
C1376      C1377   1.396       .  A
C1376      H1385   1.084       .  S
C1377      C1378   1.402       .  A
C1378      H1386   1.084       .  S
C1387      C1388   1.402       .  A
C1387      C1392   1.403       .  A
C1388      C1389   1.399       .  A
C1388      H1401   1.083       .  S
C1389      C1390   1.415       .  A
C1389      H1402   1.078       .  S
C1390      C1396   1.433       .  A
C1390      C1391   1.423       .  A
C1391      C1393   1.400       .  A
C1391      C1392   1.408       .  A
C1392      H1403   1.085       .  S
C1393      C1394   1.390       .  A
C1393      H1404   1.084       .  S
C1394      C1395   1.400       .  A
C1394      H1405   1.084       .  S
C1395      C1396   1.422       .  A
C1395      C1400   1.406       .  A
C1396      C1397   1.416       .  A
C1397      C1398   1.400       .  A
C1397      H1406   1.078       .  S
C1398      C1399   1.402       .  A
C1398      H1407   1.083       .  S
C1399      C1400   1.404       .  A
C1400      H1408   1.084       .  S
