geometry optimzed in LAMMPS
_audit_creation_date              2020-12-01 
_audit_creation_method            'lammps2cif' 
_symmetry_space_group_name_H-M    'P1' 
_symmetry_Int_Tables_number       1 
_symmetry_cell_setting            triclinic 
loop_ 
_symmetry_equiv_pos_as_xyz 
  x,y,z 
_cell_length_a                    35.35803017 
_cell_length_b                    35.3600774696997 
_cell_length_c                    37.61163615822398 
_cell_angle_alpha                 89.89696189362324 
_cell_angle_beta                  89.89739446217209 
_cell_angle_gamma                 120.21723557803905 
loop_ 
_atom_site_label 
_atom_site_type_symbol 
_atom_site_fract_x 
_atom_site_fract_y 
_atom_site_fract_z 
_atom_site_charge 
Fe1        Fe  0.45714473  0.12454141  0.12708543     1.65800
Fe2        Fe  0.37673275  0.09840796  0.06942787     1.73200
Fe3        Fe  0.40049812  0.17827849  0.13110001     1.54400
O4          O  0.38297148  0.14364005  0.17735700    -0.83000
O5          O  0.37803594  0.15522674  0.04763654    -0.81400
O6          O  0.42864063  0.11661966  0.17825256    -0.85600
O7          O  0.48965128  0.19037560  0.12636713    -0.80400
O8          O  0.33836475  0.14603267  0.11485324    -0.82200
O9          O  0.43359025  0.11612180  0.03754622    -0.84900
C10         C  0.48781991  0.20863166  0.15409186     0.95800
C11         C  0.39987295  0.12361084  0.19276283     1.03300
O12         O  0.41128937  0.13274490  0.10928330    -1.13900
O13         O  0.36968576  0.03800640  0.08783086    -0.76300
O14         O  0.42526685  0.05803979  0.12524500    -0.79800
O15         O  0.45949889  0.21950995  0.15583036    -0.80500
C16         C  0.38957369  0.02898888  0.11175705     0.94700
O17         O  0.48497219  0.12931077  0.07813037    -0.78500
O18         O  0.32089020  0.07923340  0.10162370    -0.83700
C19         C  0.39779157  0.19651647  0.05480403     0.97400
C20         C  0.31384576  0.10568792  0.11928848     1.03300
O21         O  0.41726477  0.21218842  0.08424418    -0.79300
C22         C  0.47312027  0.12746098  0.04605815     1.01600
Fe23       Fe  0.35949134  0.41415344  0.38387207     1.65800
Fe24       Fe  0.28965439  0.42260708  0.44056361     1.73200
Fe25       Fe  0.25307626  0.35549393  0.37007876     1.54400
O26         O  0.28656768  0.37695200  0.32335688    -0.83000
O27         O  0.24646223  0.36266231  0.46392990    -0.81400
O28         O  0.35141258  0.43526053  0.33515879    -0.85600
O29         O  0.33899555  0.35379642  0.36146498    -0.80400
O30         O  0.24742415  0.40882202  0.36192609    -0.82200
O31         O  0.34023336  0.41883624  0.46980776    -0.84900
C32         C  0.30432564  0.31777639  0.35465798     0.95800
C33         C  0.32112181  0.41113816  0.31384599     1.03300
O34         O  0.30070302  0.39484336  0.39982721    -1.13900
O35         O  0.32977427  0.48484516  0.41757851    -0.76300
O36         O  0.38607548  0.47762318  0.40329404    -0.79800
O37         O  0.26826993  0.30664375  0.37037593    -0.80500
C38         C  0.36680321  0.49968784  0.40249769     0.94700
O39         O  0.36889411  0.39269141  0.43031674    -0.78500
O40         O  0.23515526  0.42325733  0.41556002    -0.83700
C41         C  0.21395015  0.33012329  0.44931700     0.97400
C42         C  0.22677293  0.41930992  0.38220229     1.03300
O43         O  0.21034541  0.32690374  0.41520668    -0.79300
C44         C  0.36210163  0.39969607  0.46188449     1.01600
Fe45       Fe  0.39541948  0.36227110  0.28793906     1.65800
Fe46       Fe  0.41439746  0.29860493  0.23087036     1.73200
Fe47       Fe  0.34912755  0.25515098  0.30316941     1.54400
O48         O  0.37130028  0.28510485  0.34974899    -0.83000
O49         O  0.35557364  0.25333274  0.20780664    -0.81400
O50         O  0.41130940  0.35633450  0.33948892    -0.85600
O51         O  0.32816644  0.33124693  0.29600628    -0.80400
O52         O  0.40878520  0.26079915  0.30553419    -0.82200
O53         O  0.40902144  0.34761143  0.20096366    -0.84900
C54         C  0.30607992  0.30168839  0.31883405     0.95800
C55         C  0.39748762  0.32345405  0.35958996     1.03300
O56         O  0.38356487  0.30542960  0.27248411    -1.13900
O57         O  0.47503698  0.34202954  0.25485913    -0.76300
O58         O  0.46285519  0.39312456  0.27811827    -0.79800
O59         O  0.29525506  0.26232037  0.31193183    -0.80500
C60         C  0.48719109  0.37630872  0.27372923     0.94700
O61         O  0.38191426  0.37522045  0.23976856    -0.78500
O62         O  0.41823504  0.24438672  0.25313437    -0.83700
C63         C  0.32361391  0.22016391  0.22265869     0.97400
C64         C  0.41592268  0.23717293  0.28641116     1.03300
O65         O  0.32051591  0.21561463  0.25676657    -0.79300
C66         C  0.39024220  0.36964929  0.20853204     1.01600
Fe67       Fe  0.04316512  0.39213349  0.37893836     1.65800
Fe68       Fe  0.12194320  0.41880503  0.31926572     1.73200
Fe69       Fe  0.09909640  0.33788934  0.38017703     1.54400
O70         O  0.11874281  0.37224087  0.42673656    -0.83000
O71         O  0.11998236  0.36197032  0.29649735    -0.81400
O72         O  0.07276514  0.39881487  0.42920841    -0.85600
O73         O  0.01093707  0.32627563  0.37726430    -0.80400
O74         O  0.15989678  0.36972285  0.36137166    -0.82200
O75         O  0.06393483  0.40149883  0.28887991    -0.84900
C76         C  0.01253926  0.30774292  0.40494422     0.95800
C77         C  0.10204024  0.39204203  0.44288048     1.03300
O78         O  0.08836277  0.38409984  0.35959576    -1.13900
O79         O  0.12955330  0.47923713  0.33849033    -0.76300
O80         O  0.07534347  0.45870682  0.37769229    -0.79800
O81         O  0.04092505  0.29697261  0.40658142    -0.80500
C82         C  0.11036439  0.48806284  0.36324432     0.94700
O83         O  0.01416669  0.38876733  0.33110224    -0.78500
O84         O  0.17885928  0.43732668  0.35019074    -0.83700
C85         C  0.10023033  0.32054313  0.30353140     0.97400
C86         C  0.18524556  0.40961647  0.36670212     1.03300
O87         O  0.08053403  0.30457675  0.33303909    -0.79300
C88         C  0.02483289  0.39076717  0.29865527     1.01600
Fe89       Fe  0.14679976  0.11365977  0.13414808     1.65800
Fe90       Fe  0.21046442  0.09467953  0.19122179     1.73200
Fe91       Fe  0.25392472  0.15993931  0.11892042     1.54400
O92         O  0.22396916  0.13776681  0.07234086    -0.83000
O93         O  0.25573958  0.15350055  0.21428344    -0.81400
O94         O  0.15273416  0.09777061  0.08259863    -0.85600
O95         O  0.17783263  0.18090992  0.12607926    -0.80400
O96         O  0.24826389  0.10027912  0.11656295    -0.82200
O97         O  0.16145994  0.10006292  0.22112589    -0.84900
C98         C  0.20739437  0.20299286  0.10325172     0.95800
C99         C  0.18561561  0.11158737  0.06249841     1.03300
O100        O  0.20364233  0.12550968  0.14960533    -1.13900
O101        O  0.16703487  0.03404275  0.16723512    -0.76300
O102        O  0.11594173  0.04622677  0.14396847    -0.79800
O103        O  0.24676351  0.21381292  0.11015425    -0.80500
C104        C  0.13275640  0.02189097  0.14836095     0.94700
O105        O  0.13385131  0.12716714  0.18231760    -0.78500
O106        O  0.26468325  0.09083607  0.16896158    -0.83700
C107        C  0.28890994  0.18545814  0.19943111     0.97400
C108        C  0.27189419  0.09314457  0.13568477     1.03300
O109        O  0.29346217  0.18855216  0.16532345    -0.79300
C110        C  0.13942569  0.11884536  0.21355504     1.01600
Fe111      Fe  0.13890620  0.05521494  0.46061312     1.65800
Fe112      Fe  0.20411070  0.12826056  0.40014910     1.73200
Fe113      Fe  0.24670897  0.10330638  0.46977773     1.54400
O114        O  0.21364558  0.09211631  0.01675113    -0.83000
O115        O  0.24706190  0.11084703  0.37912185    -0.81400
O116        O  0.15073864  0.09072608  0.00639228    -0.85600
O117        O  0.16135607  0.01933961  0.48597913    -0.80400
O118        O  0.26385209  0.16577002  0.47931712    -0.82200
O119        O  0.15396851  0.06902940  0.37352422    -0.84900
C120        C  0.19554580  0.01618644  0.48555311     0.95800
C121        C  0.18208590  0.09695552  0.02662226     1.03300
O122        O  0.19680946  0.09550255  0.44286168    -1.13900
O123        O  0.16237327  0.14995341  0.41965408    -0.76300
O124        O  0.10874894  0.08585694  0.43611272    -0.79800
O125        O  0.22726441  0.03892105  0.46497984    -0.80500
C126        C  0.12517830  0.12682705  0.43420948     0.94700
O127        O  0.12849225  0.01925174  0.41748712    -0.78500
O128        O  0.25733566  0.18627645  0.42465150    -0.83700
C129        C  0.28114004  0.11312584  0.39236180     0.97400
C130        C  0.27355991  0.19496719  0.45651740     1.03300
O131        O  0.28861131  0.11742539  0.42564393    -0.79300
C132        C  0.13290610  0.02883618  0.38483066     1.01600
Fe133      Fe  0.04625450  0.14675192  0.21223727     1.65800
Fe134      Fe  0.11930463  0.21293573  0.27209454     1.73200
Fe135      Fe  0.09487926  0.25459729  0.20126689     1.54400
O136        O  0.08459679  0.22105594  0.15429911    -0.83000
O137        O  0.10107007  0.25562726  0.29221792    -0.81400
O138        O  0.08025042  0.15680846  0.16580016    -0.85600
O139        O  0.01051021  0.16888835  0.18612960    -0.80400
O140        O  0.15757529  0.27198632  0.19236720    -0.82200
O141        O  0.06065461  0.16291316  0.29923951    -0.84900
C142        C  0.00772682  0.20325945  0.18565692     0.95800
C143        C  0.08605330  0.18741625  0.14470824     1.03300
O144        O  0.08695420  0.20496720  0.22894749    -1.13900
O145        O  0.14130456  0.17117053  0.25368787    -0.76300
O146        O  0.07743425  0.11716470  0.23721804    -0.79800
O147        O  0.03051806  0.23526831  0.20569358    -0.80500
C148        C  0.11847935  0.13383858  0.23945203     0.94700
O149        O  0.01072832  0.13746705  0.25571326    -0.78500
O150        O  0.17724773  0.26611283  0.24746217    -0.83700
C151        C  0.10294056  0.28938301  0.27857948     0.97400
C152        C  0.18635663  0.28217185  0.21550969     1.03300
O153        O  0.10783003  0.29676709  0.24519559    -0.79300
C154        C  0.02050126  0.14193435  0.28828019     1.01600
Fe155      Fe  0.36235689  0.46283201  0.20985188     1.65800
Fe156      Fe  0.29616554  0.38979559  0.14998827     1.73200
Fe157      Fe  0.25450386  0.41421704  0.22081725     1.54400
O158        O  0.28804374  0.42449346  0.26778517    -0.83000
O159        O  0.25347237  0.40803272  0.12986787    -0.81400
O160        O  0.35229277  0.42883401  0.25628764    -0.85600
O161        O  0.34022157  0.49857786  0.23595975    -0.80400
O162        O  0.23710600  0.35152253  0.22971455    -0.82200
O163        O  0.34618849  0.44844574  0.12284546    -0.84900
C164        C  0.30584475  0.00135996  0.23643203     0.95800
C165        C  0.32168267  0.42303335  0.27737773     1.03300
O166        O  0.30413701  0.42213955  0.19313803    -1.13900
O167        O  0.33793026  0.36779022  0.16839046    -0.76300
O168        O  0.39194179  0.43164895  0.18487285    -0.79800
O169        O  0.27384100  0.47857539  0.21638968    -0.80500
C170        C  0.37526122  0.39060592  0.18263354     0.94700
O171        O  0.37165215  0.49836178  0.16637703    -0.78500
O172        O  0.24298708  0.33185393  0.17461995    -0.83700
C173        C  0.21971542  0.40616303  0.14350772     0.97400
C174        C  0.22692595  0.32274370  0.20657209     1.03300
O175        O  0.21233188  0.40127171  0.17689088    -0.79300
C176        C  0.36717404  0.48859509  0.13380900     1.01600
Fe177      Fe  0.09492696  0.14960371  0.03821333     1.65800
Fe178      Fe  0.08648165  0.21944627  0.48152757     1.73200
Fe179      Fe  0.15360846  0.25601267  0.05200912     1.54400
O180        O  0.13214349  0.22252090  0.09873026    -0.83000
O181        O  0.14642887  0.26263748  0.45815961    -0.81400
O182        O  0.07382142  0.15768684  0.08692678    -0.85600
O183        O  0.15528230  0.17008530  0.06062179    -0.80400
O184        O  0.10029640  0.26169229  0.06017062    -0.82200
O185        O  0.09024770  0.16886804  0.45227973    -0.84900
C186        C  0.19130848  0.20474889  0.06742689     0.95800
C187        C  0.09794933  0.18797355  0.10824022     1.03300
O188        O  0.11424555  0.20839238  0.02226143    -1.13900
O189        O  0.02424019  0.17933061  0.50451361    -0.76300
O190        O  0.03145748  0.12302760  0.01878745    -0.79800
O191        O  0.20244868  0.24080201  0.05170568    -0.80500
C192        C  0.00939402  0.14230079  0.01958921     0.94700
O193        O  0.11638783  0.14019976  0.49176862    -0.78500
O194        O  0.08583646  0.27394206  0.50653620    -0.83700
C195        C  0.17897361  0.29514452  0.47277214     0.97400
C196        C  0.08979605  0.28233229  0.03989295     1.03300
O197        O  0.18220170  0.29874238  0.50688244    -0.79300
C198        C  0.10938144  0.14699268  0.46020141     1.01600
Fe199      Fe  0.11693462  0.46591579  0.04315058     1.65800
Fe200      Fe  0.09028060  0.38714806  0.10282525     1.73200
Fe201      Fe  0.17120460  0.41000879  0.04191478     1.54400
O202        O  0.13685470  0.39035732  0.49535504    -0.83000
O203        O  0.14712315  0.38911832  0.12559217    -0.81400
O204        O  0.11025908  0.43631561  0.49288122    -0.85600
O205        O  0.18279522  0.49815385  0.04482385    -0.80400
O206        O  0.13937779  0.34921040  0.06071900    -0.82200
O207        O  0.10757946  0.44515231  0.13320982    -0.84900
C208        C  0.20132643  0.99655515  0.01714660     0.95800
C209        C  0.11704438  0.40704907  0.47920999     1.03300
O210        O  0.12498269  0.42072967  0.06249469    -1.13900
O211        O  0.02984013  0.37952545  0.08360188    -0.76300
O212        O  0.05035824  0.43372817  0.04439781    -0.79800
O213        O  0.21211501  0.46817982  0.01551118    -0.80500
C214        C  0.02100729  0.39870621  0.05884677     0.94700
O215        O  0.12029501  0.49491213  0.09098643    -0.78500
O216        O  0.07176672  0.33023691  0.07190072    -0.83700
C217        C  0.18855316  0.40887512  0.11855810     0.97400
C218        C  0.09948240  0.32385651  0.05538995     1.03300
O219        O  0.20451832  0.42857585  0.08905256    -0.79300
C220        C  0.11830124  0.48424923  0.12343380     1.01600
Fe221      Fe  0.38455975  0.05194502  0.29500617     1.65800
Fe222      Fe  0.41067423  0.13234424  0.35266714     1.73200
Fe223      Fe  0.33079791  0.10856927  0.29099346     1.54400
O224        O  0.36543732  0.12610191  0.24473697    -0.83000
O225        O  0.35384672  0.13103062  0.37445674    -0.81400
O226        O  0.39247575  0.08044938  0.24383979    -0.85600
O227        O  0.31872289  0.01942847  0.29572364    -0.80400
O228        O  0.36303601  0.17070050  0.30723895    -0.82200
O229        O  0.39296690  0.07548805  0.38454619    -0.84900
C230        C  0.30046538  0.02125841  0.26799893     0.95800
C231        C  0.38547456  0.10920998  0.22933031     1.03300
O232        O  0.37634143  0.09778868  0.31281025    -1.13900
O233        O  0.47108543  0.13940536  0.33426490    -0.76300
O234        O  0.45106464  0.08383279  0.29684784    -0.79800
O235        O  0.28957382  0.04956880  0.26626350    -0.80500
C236        C  0.48011035  0.11952621  0.31033677     0.94700
O237        O  0.37979681  0.02411706  0.34395979    -0.78500
O238        O  0.42984125  0.18818402  0.32047319    -0.83700
C239        C  0.31255441  0.11127307  0.36728727     0.97400
C240        C  0.40338298  0.19522375  0.30280673     1.03300
O241        O  0.29688456  0.09179809  0.33784846    -0.79300
C242        C  0.38163952  0.03596372  0.37603266     1.01600
Fe243      Fe  0.45386751  0.37015091  0.46147615     1.65800
Fe244      Fe  0.38080822  0.30495392  0.02193374     1.73200
Fe245      Fe  0.40576686  0.26235566  0.45230748     1.54400
O246        O  0.41696022  0.29542058  0.40533443    -0.83000
O247        O  0.39821824  0.26200398  0.04296479    -0.81400
O248        O  0.41835698  0.35832676  0.41569634    -0.85600
O249        O  0.48974081  0.34770028  0.43610945    -0.80400
O250        O  0.34330063  0.24521775  0.44276645    -0.82200
O251        O  0.44003906  0.35509545  0.04856077    -0.84900
C252        C  0.49289534  0.31351348  0.43653424     0.95800
C253        C  0.41212361  0.32698192  0.39546518     1.03300
O254        O  0.41357272  0.31225199  0.47922426    -1.13900
O255        O  0.35912123  0.34669193  0.00242374    -0.76300
O256        O  0.42322933  0.40031048  0.48597845    -0.79800
O257        O  0.47015560  0.28179280  0.45710322    -0.80500
C258        C  0.38225727  0.38388793  0.98787562     0.94700
O259        O  0.48982726  0.38055307  0.00460353    -0.78500
O260        O  0.32279033  0.25173147  0.99743100    -0.83700
C261        C  0.39594067  0.22792810  0.02972702     0.97400
C262        C  0.31410082  0.23550803  0.46556537     1.03300
O263        O  0.39164508  0.22045659  0.99644390    -0.79300
C264        C  0.48023659  0.37615078  0.03725844     1.01600
Fe265      Fe  0.45714462  0.12454130  0.62708548     1.65800
Fe266      Fe  0.37673275  0.09840801  0.56942779     1.73200
Fe267      Fe  0.40049809  0.17827842  0.63109997     1.54400
O268        O  0.38297116  0.14364018  0.67735689    -0.83000
O269        O  0.37803591  0.15522656  0.54763639    -0.81400
O270        O  0.42864029  0.11661975  0.67825266    -0.85600
O271        O  0.48965123  0.19037552  0.62636723    -0.80400
O272        O  0.33836475  0.14603269  0.61485312    -0.82200
O273        O  0.43359027  0.11612176  0.53754616    -0.84900
C274        C  0.48781992  0.20863173  0.65409189     0.95800
C275        C  0.39987375  0.12361026  0.69276290     1.03300
O276        O  0.41128937  0.13274491  0.60928322    -1.13900
O277        O  0.36968577  0.03800642  0.58783073    -0.76300
O278        O  0.42526668  0.05803964  0.62524512    -0.79800
O279        O  0.45949880  0.21950990  0.65583035    -0.80500
C280        C  0.38957349  0.02898882  0.61175696     0.94700
O281        O  0.48497210  0.12931074  0.57813045    -0.78500
O282        O  0.32089026  0.07923347  0.60162363    -0.83700
C283        C  0.39779202  0.19651709  0.55480449     0.97400
C284        C  0.31384583  0.10568806  0.61928844     1.03300
O285        O  0.41726473  0.21218828  0.58424395    -0.79300
C286        C  0.47312021  0.12746096  0.54605814     1.01600
Fe287      Fe  0.35949142  0.41415349  0.88387203     1.65800
Fe288      Fe  0.28965445  0.42260706  0.94056362     1.73200
Fe289      Fe  0.25307634  0.35549394  0.87007874     1.54400
O290        O  0.28656762  0.37695199  0.82335686    -0.83000
O291        O  0.24646243  0.36266253  0.96393002    -0.81400
O292        O  0.35141255  0.43526051  0.83515878    -0.85600
O293        O  0.33899565  0.35379650  0.86146499    -0.80400
O294        O  0.24742403  0.40882181  0.86192611    -0.82200
O295        O  0.34023327  0.41883614  0.96980779    -0.84900
C296        C  0.30432547  0.31777622  0.85465801     0.95800
C297        C  0.32112182  0.41113811  0.81384590     1.03300
O298        O  0.30070313  0.39484342  0.89982718    -1.13900
O299        O  0.32977439  0.48484515  0.91757860    -0.76300
O300        O  0.38607557  0.47762317  0.90329392    -0.79800
O301        O  0.26827006  0.30664379  0.87037600    -0.80500
C302        C  0.36680313  0.49968792  0.90249768     0.94700
O303        O  0.36889410  0.39269139  0.93031674    -0.78500
O304        O  0.23515531  0.42325739  0.91556008    -0.83700
C305        C  0.21394950  0.33012259  0.94931625     0.97400
C306        C  0.22677282  0.41930979  0.88220240     1.03300
O307        O  0.21034547  0.32690381  0.91520691    -0.79300
C308        C  0.36210170  0.39969603  0.96188449     1.01600
Fe309      Fe  0.39541940  0.36227110  0.78793905     1.65800
Fe310      Fe  0.41439750  0.29860500  0.73087040     1.73200
Fe311      Fe  0.34912764  0.25515105  0.80316937     1.54400
O312        O  0.37130024  0.28510464  0.84974885    -0.83000
O313        O  0.35557380  0.25333303  0.70780663    -0.81400
O314        O  0.41130926  0.35633433  0.83948893    -0.85600
O315        O  0.32816625  0.33124688  0.79600630    -0.80400
O316        O  0.40878537  0.26079930  0.80553412    -0.82200
O317        O  0.40902164  0.34761152  0.70096382    -0.84900
C318        C  0.30607989  0.30168850  0.81883394     0.95800
C319        C  0.39748790  0.32345461  0.85958986     1.03300
O320        O  0.38356483  0.30542964  0.77248405    -1.13900
O321        O  0.47503689  0.34202947  0.75485921    -0.76300
O322        O  0.46285510  0.39312452  0.77811828    -0.79800
O323        O  0.29525504  0.26232030  0.81193174    -0.80500
C324        C  0.48719093  0.37630873  0.77372929     0.94700
O325        O  0.38191415  0.37522035  0.73976860    -0.78500
O326        O  0.41823498  0.24438665  0.75313435    -0.83700
C327        C  0.32361386  0.22016384  0.72265897     0.97400
C328        C  0.41592262  0.23717292  0.78641112     1.03300
O329        O  0.32051603  0.21561480  0.75676648    -0.79300
C330        C  0.39024213  0.36964938  0.70853227     1.01600
Fe331      Fe  0.04316503  0.39213356  0.87893839     1.65800
Fe332      Fe  0.12194331  0.41880520  0.81926581     1.73200
Fe333      Fe  0.09909651  0.33788951  0.88017693     1.54400
O334        O  0.11874290  0.37224120  0.92673645    -0.83000
O335        O  0.11998248  0.36197058  0.79649736    -0.81400
O336        O  0.07276497  0.39881493  0.92920831    -0.85600
O337        O  0.01093695  0.32627563  0.87726430    -0.80400
O338        O  0.15989688  0.36972302  0.86137148    -0.82200
O339        O  0.06393500  0.40149898  0.78887996    -0.84900
C340        C  0.01253931  0.30774296  0.90494418     0.95800
C341        C  0.10204078  0.39204156  0.94288039     1.03300
O342        O  0.08836272  0.38409997  0.85959577    -1.13900
O343        O  0.12955343  0.47923727  0.83849035    -0.76300
O344        O  0.07534351  0.45870703  0.87769225    -0.79800
O345        O  0.04092519  0.29697277  0.90658135    -0.80500
C346        C  0.11036420  0.48806286  0.86324437     0.94700
O347        O  0.01416658  0.38876730  0.83110215    -0.78500
O348        O  0.17885947  0.43732694  0.85019088    -0.83700
C349        C  0.10023020  0.32054310  0.80353142     0.97400
C350        C  0.18524567  0.40961655  0.86670210     1.03300
O351        O  0.08053412  0.30457691  0.83303897    -0.79300
C352        C  0.02483287  0.39076724  0.79865532     1.01600
Fe353      Fe  0.14679971  0.11365965  0.63414812     1.65800
Fe354      Fe  0.21046440  0.09467951  0.69122187     1.73200
Fe355      Fe  0.25392468  0.15993930  0.61892044     1.54400
O356        O  0.22396887  0.13776660  0.57234086    -0.83000
O357        O  0.25573950  0.15350050  0.71428354    -0.81400
O358        O  0.15273391  0.09777044  0.58259881    -0.85600
O359        O  0.17783243  0.18090975  0.62607927    -0.80400
O360        O  0.24826390  0.10027906  0.61656300    -0.82200
O361        O  0.16145993  0.10006288  0.72112598    -0.84900
C362        C  0.20739410  0.20299268  0.60325175     0.95800
C363        C  0.18561666  0.11158781  0.56249839     1.03300
O364        O  0.20364229  0.12550965  0.64960536    -1.13900
O365        O  0.16703487  0.03404265  0.66723521    -0.76300
O366        O  0.11594176  0.04622673  0.64396861    -0.79800
O367        O  0.24676335  0.21381276  0.61015424    -0.80500
C368        C  0.13275671  0.02189080  0.64836117     0.94700
O369        O  0.13385140  0.12716705  0.68231757    -0.78500
O370        O  0.26468329  0.09083605  0.66896167    -0.83700
C371        C  0.28891028  0.18545842  0.69943091     0.97400
C372        C  0.27189429  0.09314447  0.63568489     1.03300
O373        O  0.29346215  0.18855215  0.66532355    -0.79300
C374        C  0.13942565  0.11884529  0.71355499     1.01600
Fe375      Fe  0.13890608  0.05521478  0.96061312     1.65800
Fe376      Fe  0.20411073  0.12826050  0.90014911     1.73200
Fe377      Fe  0.24670893  0.10330636  0.96977778     1.54400
O378        O  0.21364583  0.09211638  0.51675102    -0.83000
O379        O  0.24706180  0.11084699  0.87912176    -0.81400
O380        O  0.15073883  0.09072615  0.50639242    -0.85600
O381        O  0.16135595  0.01933956  0.98597912    -0.80400
O382        O  0.26385207  0.16577009  0.97931708    -0.82200
O383        O  0.15396854  0.06902943  0.87352419    -0.84900
C384        C  0.19554602  0.01618638  0.98555303     0.95800
C385        C  0.18208496  0.09695549  0.52662221     1.03300
O386        O  0.19680935  0.09550239  0.94286168    -1.13900
O387        O  0.16237336  0.14995339  0.91965413    -0.76300
O388        O  0.10874885  0.08585693  0.93611261    -0.79800
O389        O  0.22726438  0.03892102  0.96497993    -0.80500
C390        C  0.12517827  0.12682714  0.93420933     0.94700
O391        O  0.12849204  0.01925158  0.91748700    -0.78500
O392        O  0.25733563  0.18627638  0.92465139    -0.83700
C393        C  0.28114054  0.11312594  0.89236227     0.97400
C394        C  0.27355999  0.19496711  0.95651749     1.03300
O395        O  0.28861126  0.11742536  0.92564382    -0.79300
C396        C  0.13290604  0.02883611  0.88483066     1.01600
Fe397      Fe  0.04625447  0.14675182  0.71223727     1.65800
Fe398      Fe  0.11930464  0.21293576  0.77209441     1.73200
Fe399      Fe  0.09487915  0.25459719  0.70126685     1.54400
O400        O  0.08459677  0.22105592  0.65429913    -0.83000
O401        O  0.10107003  0.25562728  0.79221789    -0.81400
O402        O  0.08025049  0.15680844  0.66580012    -0.85600
O403        O  0.01051017  0.16888831  0.68612962    -0.80400
O404        O  0.15757528  0.27198635  0.69236719    -0.82200
O405        O  0.06065465  0.16291317  0.79923947    -0.84900
C406        C  0.00772684  0.20325946  0.68565701     0.95800
C407        C  0.08605341  0.18741624  0.64470825     1.03300
O408        O  0.08695420  0.20496716  0.72894740    -1.13900
O409        O  0.14130453  0.17117046  0.75368783    -0.76300
O410        O  0.07743421  0.11716460  0.73721802    -0.79800
O411        O  0.03051797  0.23526818  0.70569372    -0.80500
C412        C  0.11847935  0.13383856  0.73945193     0.94700
O413        O  0.01072825  0.13746688  0.75571330    -0.78500
O414        O  0.17724788  0.26611284  0.74746209    -0.83700
C415        C  0.10294067  0.28938321  0.77857923     0.97400
C416        C  0.18635653  0.28217195  0.71550923     1.03300
O417        O  0.10783008  0.29676700  0.74519553    -0.79300
C418        C  0.02050120  0.14193433  0.78828011     1.01600
Fe419      Fe  0.36235692  0.46283198  0.70985190     1.65800
Fe420      Fe  0.29616561  0.38979573  0.64998816     1.73200
Fe421      Fe  0.25450380  0.41421706  0.72081722     1.54400
O422        O  0.28804366  0.42449337  0.76778520    -0.83000
O423        O  0.25347246  0.40803284  0.62986769    -0.81400
O424        O  0.35229273  0.42883393  0.75628761    -0.85600
O425        O  0.34022160  0.49857782  0.73595983    -0.80400
O426        O  0.23710609  0.35152251  0.72971442    -0.82200
O427        O  0.34618866  0.44844601  0.62284548    -0.84900
C428        C  0.30584472  0.00135995  0.73643204     0.95800
C429        C  0.32168261  0.42303324  0.77737780     1.03300
O430        O  0.30413700  0.42213952  0.69313802    -1.13900
O431        O  0.33793045  0.36779044  0.66839033    -0.76300
O432        O  0.39194196  0.43164907  0.68487294    -0.79800
O433        O  0.27384103  0.47857544  0.71638966    -0.80500
C434        C  0.37526121  0.39060581  0.68263356     0.94700
O435        O  0.37165242  0.49836191  0.66637714    -0.78500
O436        O  0.24298722  0.33185400  0.67461977    -0.83700
C437        C  0.21971525  0.40616295  0.64350790     0.97400
C438        C  0.22692610  0.32274389  0.70657235     1.03300
O439        O  0.21233190  0.40127165  0.67689071    -0.79300
C440        C  0.36717397  0.48859491  0.63380869     1.01600
Fe441      Fe  0.09492690  0.14960377  0.53821337     1.65800
Fe442      Fe  0.08648158  0.21944631  0.98152762     1.73200
Fe443      Fe  0.15360852  0.25601276  0.55200910     1.54400
O444        O  0.13214345  0.22252098  0.59873028    -0.83000
O445        O  0.14642851  0.26263731  0.95815948    -0.81400
O446        O  0.07382137  0.15768691  0.58692681    -0.85600
O447        O  0.15528228  0.17008529  0.56062181    -0.80400
O448        O  0.10029645  0.26169237  0.56017062    -0.82200
O449        O  0.09024759  0.16886804  0.95227982    -0.84900
C450        C  0.19130855  0.20474896  0.56742694     0.95800
C451        C  0.09794936  0.18797367  0.60824024     1.03300
O452        O  0.11424553  0.20839244  0.52226145    -1.13900
O453        O  0.02424009  0.17933055  0.00451360    -0.76300
O454        O  0.03145735  0.12302751  0.51878754    -0.79800
O455        O  0.20244875  0.24080200  0.55170573    -0.80500
C456        C  0.00939390  0.14230090  0.51958924     0.94700
O457        O  0.11638802  0.14019987  0.99176853    -0.78500
O458        O  0.08583626  0.27394209  0.00653624    -0.83700
C459        C  0.17897417  0.29514508  0.97277296     0.97400
C460        C  0.08979623  0.28233233  0.53989288     1.03300
O461        O  0.18220146  0.29874218  0.00688229    -0.79300
C462        C  0.10938153  0.14699277  0.96020137     1.01600
Fe463      Fe  0.11693474  0.46591590  0.54315061     1.65800
Fe464      Fe  0.09028063  0.38714815  0.60282525     1.73200
Fe465      Fe  0.17120477  0.41000891  0.54191488     1.54400
O466        O  0.13685466  0.39035711  0.99535500    -0.83000
O467        O  0.14712308  0.38911819  0.62559220    -0.81400
O468        O  0.11025898  0.43631532  0.99288106    -0.85600
O469        O  0.18279541  0.49815400  0.54482387    -0.80400
O470        O  0.13937786  0.34921048  0.56071905    -0.82200
O471        O  0.10757955  0.44515238  0.63320993    -0.84900
C472        C  0.20132670  0.99655521  0.51714653     0.95800
C473        C  0.11704379  0.40704952  0.97920995     1.03300
O474        O  0.12498279  0.42072979  0.56249472    -1.13900
O475        O  0.02984018  0.37952552  0.58360193    -0.76300
O476        O  0.05035827  0.43372819  0.54439783    -0.79800
O477        O  0.21211519  0.46817996  0.51551120    -0.80500
C478        C  0.02100743  0.39870650  0.55884662     0.94700
O479        O  0.12029505  0.49491218  0.59098650    -0.78500
O480        O  0.07176681  0.33023701  0.57190074    -0.83700
C481        C  0.18855345  0.40887535  0.61855797     0.97400
C482        C  0.09948252  0.32385667  0.55538987     1.03300
O483        O  0.20451843  0.42857600  0.58905280    -0.79300
C484        C  0.11830130  0.48424915  0.62343404     1.01600
Fe485      Fe  0.38455982  0.05194509  0.79500609     1.65800
Fe486      Fe  0.41067423  0.13234422  0.85266708     1.73200
Fe487      Fe  0.33079785  0.10856923  0.79099337     1.54400
O488        O  0.36543747  0.12610179  0.74473680    -0.83000
O489        O  0.35384684  0.13103069  0.87445671    -0.81400
O490        O  0.39247578  0.08044910  0.74383980    -0.85600
O491        O  0.31872302  0.01942852  0.79572360    -0.80400
O492        O  0.36303596  0.17070040  0.80723895    -0.82200
O493        O  0.39296695  0.07548799  0.88454616    -0.84900
C494        C  0.30046522  0.02125832  0.76799887     0.95800
C495        C  0.38547392  0.10921087  0.72933026     1.03300
O496        O  0.37634149  0.09778874  0.81281015    -1.13900
O497        O  0.47108545  0.13940538  0.83426482    -0.76300
O498        O  0.45106469  0.08383283  0.79684776    -0.79800
O499        O  0.28957382  0.04956877  0.76626350    -0.80500
C500        C  0.48011041  0.11952605  0.81033679     0.94700
O501        O  0.37979683  0.02411701  0.84395976    -0.78500
O502        O  0.42984128  0.18818401  0.82047303    -0.83700
C503        C  0.31255385  0.11127268  0.86728680     0.97400
C504        C  0.40338293  0.19522376  0.80280666     1.03300
O505        O  0.29688457  0.09179801  0.83784856    -0.79300
C506        C  0.38163937  0.03596356  0.87603259     1.01600
Fe507      Fe  0.45386741  0.37015085  0.96147607     1.65800
Fe508      Fe  0.38080829  0.30495392  0.52193376     1.73200
Fe509      Fe  0.40576691  0.26235565  0.95230748     1.54400
O510        O  0.41696015  0.29542060  0.90533434    -0.83000
O511        O  0.39821841  0.26200420  0.54296488    -0.81400
O512        O  0.41835686  0.35832673  0.91569639    -0.85600
O513        O  0.48974085  0.34770025  0.93610930    -0.80400
O514        O  0.34330066  0.24521756  0.94276650    -0.82200
O515        O  0.44003916  0.35509547  0.54856073    -0.84900
C516        C  0.49289556  0.31351402  0.93653406     0.95800
C517        C  0.41212343  0.32698123  0.89546506     1.03300
O518        O  0.41357261  0.31225198  0.97922420    -1.13900
O519        O  0.35912136  0.34669197  0.50242384    -0.76300
O520        O  0.42322923  0.40031043  0.98597843    -0.79800
O521        O  0.47015565  0.28179290  0.95710328    -0.80500
C522        C  0.38225747  0.38388801  0.48787556     0.94700
O523        O  0.48982742  0.38055304  0.50460353    -0.78500
O524        O  0.32279042  0.25173147  0.49743101    -0.83700
C525        C  0.39594055  0.22792762  0.52972635     0.97400
C526        C  0.31410086  0.23550798  0.96556513     1.03300
O527        O  0.39164505  0.22045672  0.49644402    -0.79300
C528        C  0.48023645  0.37615059  0.53725872     1.01600
Fe529      Fe  0.45714145  0.62453963  0.12708304     1.65800
Fe530      Fe  0.37672962  0.59840671  0.06942532     1.73200
Fe531      Fe  0.40049494  0.67827665  0.13109819     1.54400
O532        O  0.38296796  0.64363789  0.17735513    -0.83000
O533        O  0.37803295  0.65522598  0.04763419    -0.81400
O534        O  0.42863748  0.61661789  0.17825019    -0.85600
O535        O  0.48964789  0.69037336  0.12636524    -0.80400
O536        O  0.33836206  0.64603146  0.11485061    -0.82200
O537        O  0.43358766  0.61612069  0.03754375    -0.84900
C538        C  0.48781620  0.70862826  0.15409027     0.95800
C539        C  0.39987077  0.62360898  0.19276097     1.03300
O540        O  0.41128609  0.63274321  0.10928096    -1.13900
O541        O  0.36968235  0.53800476  0.08782875    -0.76300
O542        O  0.42526416  0.55803848  0.12524223    -0.79800
O543        O  0.45949567  0.71950744  0.15582880    -0.80500
C544        C  0.38957075  0.52898744  0.11175466     0.94700
O545        O  0.48496892  0.62930921  0.07812844    -0.78500
O546        O  0.32088716  0.57923218  0.10162137    -0.83700
C547        C  0.39778903  0.69651673  0.05480317     0.97400
C548        C  0.31384338  0.60568697  0.11928670     1.03300
O549        O  0.41726196  0.71218702  0.08424238    -0.79300
C550        C  0.47311743  0.62745946  0.04605602     1.01600
Fe551      Fe  0.35948925  0.91415459  0.38387391     1.65800
Fe552      Fe  0.28965172  0.92260785  0.44056460     1.73200
Fe553      Fe  0.25307431  0.85549416  0.37007976     1.54400
O554        O  0.28656650  0.87695313  0.32335828    -0.83000
O555        O  0.24646278  0.86266517  0.46393170    -0.81400
O556        O  0.35141118  0.93526201  0.33516055    -0.85600
O557        O  0.33899416  0.85379809  0.36146619    -0.80400
O558        O  0.24741926  0.90882013  0.36192666    -0.82200
O559        O  0.34023097  0.91883791  0.46980919    -0.84900
C560        C  0.30432438  0.81777765  0.35465963     0.95800
C561        C  0.32112070  0.91113899  0.31384744     1.03300
O562        O  0.30070075  0.89484461  0.39982834    -1.13900
O563        O  0.32977106  0.98484589  0.41757956    -0.76300
O564        O  0.38607266  0.97762396  0.40329633    -0.79800
O565        O  0.26826908  0.80664496  0.37037801    -0.80500
C566        C  0.36680030  0.99968864  0.40249936     0.94700
O567        O  0.36889061  0.89269150  0.43031865    -0.78500
O568        O  0.23515227  0.92325683  0.41556103    -0.83700
C569        C  0.21394263  0.83011754  0.44930970     0.97400
C570        C  0.22676873  0.91930833  0.38220354     1.03300
O571        O  0.21034384  0.82690428  0.41520983    -0.79300
C572        C  0.36209833  0.89969670  0.46188630     1.01600
Fe573      Fe  0.39541689  0.86227178  0.28794013     1.65800
Fe574      Fe  0.41439528  0.79860518  0.23087254     1.73200
Fe575      Fe  0.34912533  0.75515169  0.30317183     1.54400
O576        O  0.37129852  0.78510703  0.34975130    -0.83000
O577        O  0.35557170  0.75333300  0.20780888    -0.81400
O578        O  0.41130775  0.85633653  0.33948996    -0.85600
O579        O  0.32816402  0.83124789  0.29600770    -0.80400
O580        O  0.40878211  0.76079743  0.30553755    -0.82200
O581        O  0.40901976  0.84761162  0.20096540    -0.84900
C582        C  0.30607789  0.80168953  0.31883554     0.95800
C583        C  0.39748653  0.82345702  0.35959150     1.03300
O584        O  0.38356277  0.80543000  0.27248621    -1.13900
O585        O  0.47503431  0.84202955  0.25486149    -0.76300
O586        O  0.46285247  0.89312530  0.27811888    -0.79800
O587        O  0.29525282  0.76232148  0.31193315    -0.80500
C588        C  0.48718789  0.87630911  0.27373139     0.94700
O589        O  0.38191042  0.87521920  0.23976955    -0.78500
O590        O  0.41823313  0.74438755  0.25313669    -0.83700
C591        C  0.32361189  0.72016374  0.22266119     0.97400
C592        C  0.41592078  0.73717274  0.28641322     1.03300
O593        O  0.32051389  0.71561481  0.25676881    -0.79300
C594        C  0.39023950  0.86964875  0.20853329     1.01600
Fe595      Fe  0.04316118  0.89213465  0.37894091     1.65800
Fe596      Fe  0.12193869  0.91880394  0.31926841     1.73200
Fe597      Fe  0.09909076  0.83788798  0.38017969     1.54400
O598        O  0.11873737  0.87223961  0.42673939    -0.83000
O599        O  0.11997640  0.86196852  0.29650028    -0.81400
O600        O  0.07276316  0.89881787  0.42921044    -0.85600
O601        O  0.01093339  0.82627693  0.37726794    -0.80400
O602        O  0.15989161  0.86972089  0.36137485    -0.82200
O603        O  0.06393100  0.90149901  0.28888282    -0.84900
C604        C  0.01253555  0.80774455  0.40494759     0.95800
C605        C  0.10203706  0.89204296  0.44288284     1.03300
O606        O  0.08835792  0.88409933  0.35959840    -1.13900
O607        O  0.12955028  0.97923655  0.33849284    -0.76300
O608        O  0.07533901  0.95870799  0.37769309    -0.79800
O609        O  0.04091948  0.79697139  0.40658385    -0.80500
C610        C  0.11036093  0.98806317  0.36324556     0.94700
O611        O  0.01416217  0.88876709  0.33110480    -0.78500
O612        O  0.17885444  0.93732477  0.35019302    -0.83700
C613        C  0.10022410  0.82054107  0.30353408     0.97400
C614        C  0.18524088  0.90961456  0.36670432     1.03300
O615        O  0.08052825  0.80457463  0.33304169    -0.79300
C616        C  0.02482919  0.89076725  0.29865768     1.01600
Fe617      Fe  0.14679954  0.61365809  0.13414696     1.65800
Fe618      Fe  0.21046400  0.59467881  0.19122188     1.73200
Fe619      Fe  0.25392479  0.65993984  0.11892128     1.54400
O620        O  0.22397132  0.63776799  0.07234067    -0.83000
O621        O  0.25573857  0.65349937  0.21428477    -0.81400
O622        O  0.15273629  0.59777006  0.08259756    -0.85600
O623        O  0.17783177  0.68090820  0.12607923    -0.80400
O624        O  0.24826175  0.60027862  0.11656404    -0.82200
O625        O  0.16145951  0.60006280  0.22112562    -0.84900
C626        C  0.20739327  0.70299150  0.10325175     0.95800
C627        C  0.18561843  0.61158776  0.06249774     1.03300
O628        O  0.20364203  0.62550919  0.14960547    -1.13900
O629        O  0.16703529  0.53404198  0.16723419    -0.76300
O630        O  0.11594230  0.54622528  0.14396642    -0.79800
O631        O  0.24676278  0.71381288  0.11015465    -0.80500
C632        C  0.13275777  0.52188997  0.14835918     0.94700
O633        O  0.13384880  0.62716391  0.18231632    -0.78500
O634        O  0.26468317  0.59083578  0.16896167    -0.83700
C635        C  0.28890883  0.68545809  0.19943263     0.97400
C636        C  0.27189273  0.59314381  0.13568471     1.03300
O637        O  0.29346088  0.68855264  0.16532528    -0.79300
C638        C  0.13942442  0.61884426  0.21355412     1.01600
Fe639      Fe  0.13890955  0.55521509  0.46061240     1.65800
Fe640      Fe  0.20411268  0.62826107  0.40014826     1.73200
Fe641      Fe  0.24671254  0.60330748  0.46977667     1.54400
O642        O  0.21364961  0.59211745  0.01675038    -0.83000
O643        O  0.24706490  0.61084878  0.37912085    -0.81400
O644        O  0.15074219  0.59072635  0.00639153    -0.85600
O645        O  0.16136043  0.51934037  0.48597774    -0.80400
O646        O  0.26385569  0.66577109  0.47931557    -0.82200
O647        O  0.15397149  0.56902932  0.37352303    -0.84900
C648        C  0.19555019  0.51618704  0.48555164     0.95800
C649        C  0.18208928  0.59695596  0.02662157     1.03300
O650        O  0.19681248  0.59550303  0.44286066    -1.13900
O651        O  0.16237434  0.64995315  0.41965388    -0.76300
O652        O  0.10875086  0.58585659  0.43611323    -0.79800
O653        O  0.22726922  0.53892238  0.46497913    -0.80500
C654        C  0.12517957  0.62682656  0.43420985     0.94700
O655        O  0.12849517  0.51925183  0.41748605    -0.78500
O656        O  0.25733630  0.68627741  0.42465061    -0.83700
C657        C  0.28114282  0.61312666  0.39236107     0.97400
C658        C  0.27356107  0.69496820  0.45651649     1.03300
O659        O  0.28861424  0.61742625  0.42564281    -0.79300
C660        C  0.13290911  0.52883611  0.38482939     1.01600
Fe661      Fe  0.04625421  0.64675186  0.21223628     1.65800
Fe662      Fe  0.11930425  0.71293673  0.27209317     1.73200
Fe663      Fe  0.09487196  0.75459728  0.20126777     1.54400
O664        O  0.08459508  0.72105710  0.15429942    -0.83000
O665        O  0.10107092  0.75562875  0.29221900    -0.81400
O666        O  0.08025137  0.65681036  0.16580012    -0.85600
O667        O  0.01050790  0.66888491  0.18612696    -0.80400
O668        O  0.15757072  0.77199780  0.19236833    -0.82200
O669        O  0.06065497  0.66291370  0.29923808    -0.84900
C670        C  0.00772172  0.70325421  0.18565557     0.95800
C671        C  0.08605321  0.68741785  0.14470840     1.03300
O672        O  0.08695271  0.70496803  0.22894668    -1.13900
O673        O  0.14130451  0.67117183  0.25368546    -0.76300
O674        O  0.07743403  0.61716533  0.23721779    -0.79800
O675        O  0.03050921  0.73526106  0.20569500    -0.80500
C676        C  0.11847905  0.63383916  0.23945074     0.94700
O677        O  0.01072820  0.63746693  0.25571197    -0.78500
O678        O  0.17724631  0.76611280  0.24745988    -0.83700
C679        C  0.10293461  0.78938192  0.27858110     0.97400
C680        C  0.18635328  0.78217580  0.21550839     1.03300
O681        O  0.10781706  0.79676416  0.24519703    -0.79300
C682        C  0.02050161  0.64193432  0.28827881     1.01600
Fe683      Fe  0.36235564  0.96283230  0.20985346     1.65800
Fe684      Fe  0.29616509  0.88979742  0.14998868     1.73200
Fe685      Fe  0.25450299  0.91421514  0.22081888     1.54400
O686        O  0.28804289  0.92449394  0.26778672    -0.83000
O687        O  0.25347326  0.90803702  0.12986916    -0.81400
O688        O  0.35229158  0.92883416  0.25628913    -0.85600
O689        O  0.34021887  0.99857753  0.23596063    -0.80400
O690        O  0.23711172  0.85152198  0.22971553    -0.82200
O691        O  0.34618982  0.94844733  0.12284715    -0.84900
C692        C  0.30584806  0.50136099  0.23643073     0.95800
C693        C  0.32168184  0.92303379  0.27737930     1.03300
O694        O  0.30413642  0.92214043  0.19313896    -1.13900
O695        O  0.33792856  0.86779053  0.16839100    -0.76300
O696        O  0.39194027  0.93164893  0.18487438    -0.79800
O697        O  0.27383669  0.97857295  0.21639223    -0.80500
C698        C  0.37525928  0.89060574  0.18263461     0.94700
O699        O  0.37165205  0.99836272  0.16637909    -0.78500
O700        O  0.24298445  0.83185574  0.17461840    -0.83700
C701        C  0.21971465  0.90616327  0.14350945     0.97400
C702        C  0.22692583  0.82274445  0.20657150     1.03300
O703        O  0.21232999  0.90126756  0.17689239    -0.79300
C704        C  0.36717560  0.98859639  0.13381099     1.01600
Fe705      Fe  0.09492551  0.64960305  0.03821378     1.65800
Fe706      Fe  0.08648115  0.71944603  0.48152823     1.73200
Fe707      Fe  0.15360947  0.75601240  0.05200954     1.54400
O708        O  0.13214462  0.72252103  0.09873080    -0.83000
O709        O  0.14642587  0.76263575  0.45815956    -0.81400
O710        O  0.07382062  0.65768836  0.08692697    -0.85600
O711        O  0.15528056  0.67008353  0.06062236    -0.80400
O712        O  0.10029985  0.76169558  0.06017269    -0.82200
O713        O  0.09024943  0.66886864  0.45227975    -0.84900
C714        C  0.19130744  0.70474690  0.06742677     0.95800
C715        C  0.09794940  0.68797513  0.10824058     1.03300
O716        O  0.11424457  0.70839197  0.02226202    -1.13900
O717        O  0.02423909  0.67932974  0.50451294    -0.76300
O718        O  0.03145588  0.62302678  0.01878767    -0.79800
O719        O  0.20244810  0.74079953  0.05170473    -0.80500
C720        C  0.00939239  0.64229942  0.01958825     0.94700
O721        O  0.11638627  0.64019762  0.49176916    -0.78500
O722        O  0.08583507  0.77394121  0.50653808    -0.83700
C723        C  0.17897918  0.79515083  0.47278115     0.97400
C724        C  0.08979686  0.78233334  0.03989455     1.03300
O725        O  0.18220194  0.79874185  0.50688093    -0.79300
C726        C  0.10938197  0.64699218  0.46020162     1.01600
Fe727      Fe  0.11693130  0.96591643  0.04315315     1.65800
Fe728      Fe  0.09027883  0.88714857  0.10282737     1.73200
Fe729      Fe  0.17120377  0.91001141  0.04191705     1.54400
O730        O  0.13685452  0.89036086  0.49535660    -0.83000
O731        O  0.14712157  0.88911866  0.12559447    -0.81400
O732        O  0.11025495  0.93631586  0.49288392    -0.85600
O733        O  0.18279187  0.99815547  0.04482581    -0.80400
O734        O  0.13937717  0.84921235  0.06071982    -0.82200
O735        O  0.10757759  0.94515300  0.13321201    -0.84900
C736        C  0.20132960  0.49655339  0.01714407     0.95800
C737        C  0.11704182  0.90705089  0.47921223     1.03300
O738        O  0.12498085  0.92073092  0.06249700    -1.13900
O739        O  0.02983763  0.87952519  0.08360433    -0.76300
O740        O  0.05035513  0.93372870  0.04440126    -0.79800
O741        O  0.21211468  0.96818328  0.01551486    -0.80500
C742        C  0.02100433  0.89870653  0.05884985     0.94700
O743        O  0.12029176  0.99491259  0.09098871    -0.78500
O744        O  0.07176587  0.83023752  0.07190242    -0.83700
C745        C  0.18855156  0.90887564  0.11856046     0.97400
C746        C  0.09948191  0.82385781  0.05539113     1.03300
O747        O  0.20451674  0.92857736  0.08905531    -0.79300
C748        C  0.11829888  0.98424960  0.12343621     1.01600
Fe749      Fe  0.38456117  0.55194486  0.29500466     1.65800
Fe750      Fe  0.41067566  0.63234366  0.35266603     1.73200
Fe751      Fe  0.33079852  0.60856823  0.29099299     1.54400
O752        O  0.36543729  0.62610174  0.24473607    -0.83000
O753        O  0.35384859  0.63103015  0.37445576    -0.81400
O754        O  0.39247613  0.58044949  0.24383839    -0.85600
O755        O  0.31872465  0.51942829  0.29572272    -0.80400
O756        O  0.36303598  0.67069900  0.30723939    -0.82200
O757        O  0.39296887  0.57548724  0.38454473    -0.84900
C758        C  0.30046717  0.52125812  0.26799787     0.95800
C759        C  0.38547353  0.60920998  0.22932889     1.03300
O760        O  0.37634279  0.59778823  0.31280910    -1.13900
O761        O  0.47108659  0.63940491  0.33426369    -0.76300
O762        O  0.45106559  0.58383250  0.29684636    -0.79800
O763        O  0.28957485  0.54956785  0.26626280    -0.80500
C764        C  0.48011138  0.61952606  0.31033564     0.94700
O765        O  0.37979905  0.52411664  0.34395801    -0.78500
O766        O  0.42984192  0.68818365  0.32047252    -0.83700
C767        C  0.31255603  0.61127232  0.36728632     0.97400
C768        C  0.40338262  0.69522330  0.30280726     1.03300
O769        O  0.29688596  0.59179616  0.33784831    -0.79300
C770        C  0.38164179  0.53596312  0.37603106     1.01600
Fe771      Fe  0.45386552  0.87015404  0.46147883     1.65800
Fe772      Fe  0.38080575  0.80495479  0.02193530     1.73200
Fe773      Fe  0.40576512  0.76235921  0.45230831     1.54400
O774        O  0.41696172  0.79542569  0.40533584    -0.83000
O775        O  0.39821640  0.76200481  0.04296512    -0.81400
O776        O  0.41835604  0.85833042  0.41569801    -0.85600
O777        O  0.48974003  0.84770391  0.43611335    -0.80400
O778        O  0.34330001  0.74522425  0.44276551    -0.82200
O779        O  0.44003606  0.85509555  0.04856377    -0.84900
C780        C  0.49289379  0.81351658  0.43653843     0.95800
C781        C  0.41212342  0.82698556  0.39546667     1.03300
O782        O  0.41357076  0.81225464  0.47922609    -1.13900
O783        O  0.35911866  0.84669317  0.00242586    -0.76300
O784        O  0.42322627  0.90031258  0.48598081    -0.79800
O785        O  0.47015323  0.78179600  0.45710721    -0.80500
C786        C  0.38225431  0.88388924  0.98787760     0.94700
O787        O  0.48982443  0.88055596  0.00460675    -0.78500
O788        O  0.32278888  0.75173229  0.99743117    -0.83700
C789        C  0.39593702  0.72792767  0.02972557     0.97400
C790        C  0.31409993  0.73551077  0.46556464     1.03300
O791        O  0.39163996  0.72045751  0.99644345    -0.79300
C792        C  0.48023352  0.87615167  0.03726180     1.01600
Fe793      Fe  0.45714153  0.62453962  0.62708304     1.65800
Fe794      Fe  0.37672967  0.59840670  0.56942538     1.73200
Fe795      Fe  0.40049497  0.67827664  0.63109828     1.54400
O796        O  0.38296791  0.64363770  0.67735513    -0.83000
O797        O  0.37803306  0.65522605  0.54763435    -0.81400
O798        O  0.42863754  0.61661782  0.67825007    -0.85600
O799        O  0.48964797  0.69037342  0.62636522    -0.80400
O800        O  0.33836219  0.64603143  0.61485060    -0.82200
O801        O  0.43358758  0.61612067  0.53754379    -0.84900
C802        C  0.48781617  0.70862837  0.65409039     0.95800
C803        C  0.39987071  0.62360895  0.69276093     1.03300
O804        O  0.41128608  0.63274317  0.60928104    -1.13900
O805        O  0.36968237  0.53800485  0.58782873    -0.76300
O806        O  0.42526414  0.55803835  0.62524221    -0.79800
O807        O  0.45949560  0.71950738  0.65582887    -0.80500
C808        C  0.38957124  0.52898769  0.61175490     0.94700
O809        O  0.48496900  0.62930918  0.57812835    -0.78500
O810        O  0.32088710  0.57923209  0.60162141    -0.83700
C811        C  0.39778889  0.69651650  0.55480299     0.97400
C812        C  0.31384348  0.60568694  0.61928666     1.03300
O813        O  0.41726208  0.71218712  0.58424254    -0.79300
C814        C  0.47311785  0.62745954  0.54605631     1.01600
Fe815      Fe  0.35948931  0.91415463  0.88387395     1.65800
Fe816      Fe  0.28965173  0.92260790  0.94056461     1.73200
Fe817      Fe  0.25307442  0.85549428  0.87007980     1.54400
O818        O  0.28656659  0.87695320  0.82335838    -0.83000
O819        O  0.24646297  0.86266538  0.96393185    -0.81400
O820        O  0.35141130  0.93526196  0.83516061    -0.85600
O821        O  0.33899422  0.85379809  0.86146630    -0.80400
O822        O  0.24741939  0.90882041  0.86192666    -0.82200
O823        O  0.34023080  0.91883784  0.96980925    -0.84900
C824        C  0.30432440  0.81777769  0.85465961     0.95800
C825        C  0.32112062  0.91113895  0.81384750     1.03300
O826        O  0.30070088  0.89484472  0.89982837    -1.13900
O827        O  0.32977104  0.98484594  0.91757961    -0.76300
O828        O  0.38607268  0.97762405  0.90329641    -0.79800
O829        O  0.26826913  0.80664502  0.87037799    -0.80500
C830        C  0.36680019  0.99968868  0.90249944     0.94700
O831        O  0.36889044  0.89269146  0.93031867    -0.78500
O832        O  0.23515224  0.92325683  0.91556106    -0.83700
C833        C  0.21394207  0.83011706  0.94930896     0.97400
C834        C  0.22676869  0.91930837  0.88220354     1.03300
O835        O  0.21034384  0.82690429  0.91521010    -0.79300
C836        C  0.36209842  0.89969677  0.96188627     1.01600
Fe837      Fe  0.39541693  0.86227184  0.78794011     1.65800
Fe838      Fe  0.41439527  0.79860521  0.73087248     1.73200
Fe839      Fe  0.34912546  0.75515176  0.80317178     1.54400
O840        O  0.37129854  0.78510700  0.84975113    -0.83000
O841        O  0.35557144  0.75333292  0.70780897    -0.81400
O842        O  0.41130786  0.85633650  0.83948988    -0.85600
O843        O  0.32816404  0.83124795  0.79600766    -0.80400
O844        O  0.40878210  0.76079738  0.80553755    -0.82200
O845        O  0.40901966  0.84761159  0.70096539    -0.84900
C846        C  0.30607796  0.80168961  0.81883548     0.95800
C847        C  0.39748675  0.82345744  0.85959146     1.03300
O848        O  0.38356274  0.80543006  0.77248612    -1.13900
O849        O  0.47503422  0.84202956  0.75486141    -0.76300
O850        O  0.46285247  0.89312537  0.77811872    -0.79800
O851        O  0.29525302  0.76232155  0.81193312    -0.80500
C852        C  0.48718777  0.87630890  0.77373126     0.94700
O853        O  0.38191046  0.87521929  0.73976954    -0.78500
O854        O  0.41823302  0.74438750  0.75313664    -0.83700
C855        C  0.32361229  0.72016428  0.72266047     0.97400
C856        C  0.41592084  0.73717274  0.78641327     1.03300
O857        O  0.32051396  0.71561475  0.75676904    -0.79300
C858        C  0.39023946  0.86964885  0.70853339     1.01600
Fe859      Fe  0.04316125  0.89213465  0.87894089     1.65800
Fe860      Fe  0.12193866  0.91880384  0.81926838     1.73200
Fe861      Fe  0.09909081  0.83788792  0.88017974     1.54400
O862        O  0.11873735  0.87223970  0.92673952    -0.83000
O863        O  0.11997638  0.86196849  0.79650017    -0.81400
O864        O  0.07276307  0.89881792  0.92921037    -0.85600
O865        O  0.01093340  0.82627694  0.87726799    -0.80400
O866        O  0.15989157  0.86972085  0.86137483    -0.82200
O867        O  0.06393102  0.90149895  0.78888269    -0.84900
C868        C  0.01253579  0.80774433  0.90494796     0.95800
C869        C  0.10203761  0.89204248  0.94288280     1.03300
O870        O  0.08835802  0.88409933  0.85959848    -1.13900
O871        O  0.12955024  0.97923643  0.83849283    -0.76300
O872        O  0.07533906  0.95870797  0.87769311    -0.79800
O873        O  0.04091946  0.79697132  0.90658393    -0.80500
C874        C  0.11036102  0.98806322  0.86324541     0.94700
O875        O  0.01416217  0.88876698  0.83110465    -0.78500
O876        O  0.17885454  0.93732471  0.85019294    -0.83700
C877        C  0.10022414  0.82054098  0.80353411     0.97400
C878        C  0.18524083  0.90961455  0.86670438     1.03300
O879        O  0.08052833  0.80457470  0.83304175    -0.79300
C880        C  0.02482879  0.89076713  0.79865794     1.01600
Fe881      Fe  0.14679950  0.61365803  0.63414699     1.65800
Fe882      Fe  0.21046396  0.59467874  0.69122190     1.73200
Fe883      Fe  0.25392479  0.65993994  0.61892133     1.54400
O884        O  0.22397126  0.63776804  0.57234066    -0.83000
O885        O  0.25573857  0.65349947  0.71428461    -0.81400
O886        O  0.15273629  0.59777000  0.58259769    -0.85600
O887        O  0.17783170  0.68090816  0.62607920    -0.80400
O888        O  0.24826190  0.60027882  0.61656395    -0.82200
O889        O  0.16145941  0.60006272  0.72112568    -0.84900
C890        C  0.20739332  0.70299155  0.60325173     0.95800
C891        C  0.18561909  0.61158807  0.56249778     1.03300
O892        O  0.20364201  0.62550927  0.64960555    -1.13900
O893        O  0.16703533  0.53404194  0.66723431    -0.76300
O894        O  0.11594231  0.54622518  0.64396647    -0.79800
O895        O  0.24676280  0.71381303  0.61015474    -0.80500
C896        C  0.13275765  0.52188996  0.64835922     0.94700
O897        O  0.13384884  0.62716393  0.68231636    -0.78500
O898        O  0.26468317  0.59083576  0.66896163    -0.83700
C899        C  0.28890822  0.68545759  0.69943335     0.97400
C900        C  0.27189286  0.59314398  0.63568467     1.03300
O901        O  0.29346084  0.68855266  0.66532510    -0.79300
C902        C  0.13942453  0.61884433  0.71355411     1.01600
Fe903      Fe  0.13890953  0.55521517  0.96061238     1.65800
Fe904      Fe  0.20411269  0.62826111  0.90014825     1.73200
Fe905      Fe  0.24671254  0.60330746  0.96977667     1.54400
O906        O  0.21364980  0.59211754  0.51675036    -0.83000
O907        O  0.24706484  0.61084889  0.87912078    -0.81400
O908        O  0.15074240  0.59072639  0.50639155    -0.85600
O909        O  0.16136037  0.51934027  0.98597770    -0.80400
O910        O  0.26385553  0.66577104  0.97931557    -0.82200
O911        O  0.15397138  0.56902932  0.87352304    -0.84900
C912        C  0.19554985  0.51618692  0.98555170     0.95800
C913        C  0.18208888  0.59695604  0.52662147     1.03300
O914        O  0.19681252  0.59550314  0.94286072    -1.13900
O915        O  0.16237426  0.64995316  0.91965372    -0.76300
O916        O  0.10875092  0.58585669  0.93611326    -0.79800
O917        O  0.22726922  0.53892241  0.96497904    -0.80500
C918        C  0.12517975  0.62682676  0.93420983     0.94700
O919        O  0.12849505  0.51925182  0.91748601    -0.78500
O920        O  0.25733631  0.68627754  0.92465064    -0.83700
C921        C  0.28114296  0.61312677  0.89236126     0.97400
C922        C  0.27356100  0.69496820  0.95651654     1.03300
O923        O  0.28861408  0.61742619  0.92564275    -0.79300
C924        C  0.13290920  0.52883637  0.88482921     1.01600
Fe925      Fe  0.04625417  0.64675180  0.71223631     1.65800
Fe926      Fe  0.11930416  0.71293668  0.77209318     1.73200
Fe927      Fe  0.09487182  0.75459721  0.70126784     1.54400
O928        O  0.08459491  0.72105703  0.65429945    -0.83000
O929        O  0.10107076  0.75562864  0.79221895    -0.81400
O930        O  0.08025138  0.65681035  0.66580006    -0.85600
O931        O  0.01050797  0.66888489  0.68612696    -0.80400
O932        O  0.15757055  0.77199772  0.69236836    -0.82200
O933        O  0.06065476  0.66291364  0.79923817    -0.84900
C934        C  0.00772168  0.70325426  0.68565571     0.95800
C935        C  0.08605330  0.68741783  0.64470839     1.03300
O936        O  0.08695265  0.70496794  0.72894671    -1.13900
O937        O  0.14130436  0.67117181  0.75368551    -0.76300
O938        O  0.07743396  0.61716527  0.73721771    -0.79800
O939        O  0.03050901  0.73526093  0.70569505    -0.80500
C940        C  0.11847896  0.63383919  0.73945074     0.94700
O941        O  0.01072813  0.63746676  0.75571194    -0.78500
O942        O  0.17724613  0.76611274  0.74745990    -0.83700
C943        C  0.10293445  0.78938184  0.77858112     0.97400
C944        C  0.18635311  0.78217570  0.71550836     1.03300
O945        O  0.10781697  0.79676418  0.74519708    -0.79300
C946        C  0.02050185  0.64193438  0.78827916     1.01600
Fe947      Fe  0.36235554  0.96283228  0.70985344     1.65800
Fe948      Fe  0.29616497  0.88979737  0.64998864     1.73200
Fe949      Fe  0.25450283  0.91421510  0.72081882     1.54400
O950        O  0.28804275  0.92449379  0.76778663    -0.83000
O951        O  0.25347320  0.90803700  0.62986912    -0.81400
O952        O  0.35229148  0.92883414  0.75628915    -0.85600
O953        O  0.34021876  0.99857756  0.73596058    -0.80400
O954        O  0.23711151  0.85152187  0.72971548    -0.82200
O955        O  0.34618989  0.94844730  0.62284713    -0.84900
C956        C  0.30584783  0.50136091  0.73643071     0.95800
C957        C  0.32168188  0.92303384  0.77737934     1.03300
O958        O  0.30413627  0.92214040  0.69313890    -1.13900
O959        O  0.33792846  0.86779051  0.66839100    -0.76300
O960        O  0.39194013  0.93164897  0.68487430    -0.79800
O961        O  0.27383658  0.97857293  0.71639217    -0.80500
C962        C  0.37525916  0.89060567  0.68263458     0.94700
O963        O  0.37165195  0.99836279  0.66637902    -0.78500
O964        O  0.24298437  0.83185557  0.67461840    -0.83700
C965        C  0.21971431  0.90616307  0.64350959     0.97400
C966        C  0.22692579  0.82274432  0.70657157     1.03300
O967        O  0.21232983  0.90126757  0.67689232    -0.79300
C968        C  0.36717542  0.98859644  0.63381100     1.01600
Fe969      Fe  0.09492552  0.64960305  0.53821375     1.65800
Fe970      Fe  0.08648122  0.71944609  0.98152830     1.73200
Fe971      Fe  0.15360946  0.75601241  0.55200948     1.54400
O972        O  0.13214460  0.72252102  0.59873073    -0.83000
O973        O  0.14642572  0.76263558  0.95815941    -0.81400
O974        O  0.07382065  0.65768829  0.58692696    -0.85600
O975        O  0.15528063  0.67008359  0.56062238    -0.80400
O976        O  0.10029987  0.76169562  0.56017268    -0.82200
O977        O  0.09024938  0.66886867  0.95227982    -0.84900
C978        C  0.19130741  0.70474685  0.56742674     0.95800
C979        C  0.09794945  0.68797524  0.60824055     1.03300
O980        O  0.11424452  0.70839195  0.52226197    -1.13900
O981        O  0.02423911  0.67932984  0.00451299    -0.76300
O982        O  0.03145589  0.62302674  0.51878771    -0.79800
O983        O  0.20244819  0.74079955  0.55170465    -0.80500
C984        C  0.00939228  0.64229962  0.51958815     0.94700
O985        O  0.11638622  0.64019761  0.99176918    -0.78500
O986        O  0.08583514  0.77394124  0.00653811    -0.83700
C987        C  0.17897972  0.79515138  0.97278195     0.97400
C988        C  0.08979685  0.78233334  0.53989460     1.03300
O989        O  0.18220184  0.79874172  0.00688073    -0.79300
C990        C  0.10938205  0.64699225  0.96020177     1.01600
Fe991      Fe  0.11693125  0.96591646  0.54315318     1.65800
Fe992      Fe  0.09027886  0.88714851  0.60282742     1.73200
Fe993      Fe  0.17120377  0.91001153  0.54191710     1.54400
O994        O  0.13685457  0.89036060  0.99535661    -0.83000
O995        O  0.14712153  0.88911854  0.62559453    -0.81400
O996        O  0.11025508  0.93631566  0.99288378    -0.85600
O997        O  0.18279188  0.99815546  0.54482589    -0.80400
O998        O  0.13937722  0.84921242  0.56071977    -0.82200
O999        O  0.10757749  0.94515280  0.63321215    -0.84900
C1000       C  0.20132962  0.49655365  0.51714426     0.95800
C1001       C  0.11704141  0.90705136  0.97921218     1.03300
O1002       O  0.12498078  0.92073096  0.56249704    -1.13900
O1003       O  0.02983760  0.87952503  0.58360447    -0.76300
O1004       O  0.05035497  0.93372855  0.54440140    -0.79800
O1005       O  0.21211477  0.96818341  0.51551486    -0.80500
C1006       C  0.02100438  0.89870669  0.55884986     0.94700
O1007       O  0.12029176  0.99491250  0.59098888    -0.78500
O1008       O  0.07176590  0.83023750  0.57190245    -0.83700
C1009       C  0.18855176  0.90887574  0.61856035     0.97400
C1010       C  0.09948192  0.82385777  0.55539114     1.03300
O1011       O  0.20451672  0.92857748  0.58905545    -0.79300
C1012       C  0.11829893  0.98424974  0.62343612     1.01600
Fe1013     Fe  0.38456120  0.55194488  0.79500464     1.65800
Fe1014     Fe  0.41067574  0.63234367  0.85266610     1.73200
Fe1015     Fe  0.33079866  0.60856827  0.79099302     1.54400
O1016       O  0.36543740  0.62610179  0.74473606    -0.83000
O1017       O  0.35384866  0.63103013  0.87445585    -0.81400
O1018       O  0.39247610  0.58044946  0.74383829    -0.85600
O1019       O  0.31872466  0.51942822  0.79572262    -0.80400
O1020       O  0.36303612  0.67069906  0.80723933    -0.82200
O1021       O  0.39296894  0.57548729  0.88454476    -0.84900
C1022       C  0.30046734  0.52125808  0.76799789     0.95800
C1023       C  0.38547367  0.60920988  0.72932885     1.03300
O1024       O  0.37634295  0.59778834  0.81280914    -1.13900
O1025       O  0.47108656  0.63940492  0.83426382    -0.76300
O1026       O  0.45106576  0.58383266  0.79684634    -0.79800
O1027       O  0.28957498  0.54956795  0.76626273    -0.80500
C1028       C  0.48011118  0.61952551  0.81033534     0.94700
O1029       O  0.37979903  0.52411663  0.84395805    -0.78500
O1030       O  0.42984207  0.68818372  0.82047258    -0.83700
C1031       C  0.31255583  0.61127224  0.86728617     0.97400
C1032       C  0.40338293  0.69522339  0.80280732     1.03300
O1033       O  0.29688603  0.59179637  0.83784837    -0.79300
C1034       C  0.38164177  0.53596292  0.87603098     1.01600
Fe1035     Fe  0.45386559  0.87015405  0.96147879     1.65800
Fe1036     Fe  0.38080565  0.80495467  0.52193533     1.73200
Fe1037     Fe  0.40576515  0.76235922  0.95230823     1.54400
O1038       O  0.41696184  0.79542576  0.90533566    -0.83000
O1039       O  0.39821640  0.76200477  0.54296518    -0.81400
O1040       O  0.41835615  0.85833048  0.91569798    -0.85600
O1041       O  0.48974007  0.84770385  0.93611338    -0.80400
O1042       O  0.34329993  0.74522426  0.94276545    -0.82200
O1043       O  0.44003595  0.85509542  0.54856371    -0.84900
C1044       C  0.49289389  0.81351672  0.93653844     0.95800
C1045       C  0.41212338  0.82698518  0.89546648     1.03300
O1046       O  0.41357075  0.81225471  0.97922600    -1.13900
O1047       O  0.35911861  0.84669300  0.50242581    -0.76300
O1048       O  0.42322635  0.90031255  0.98598067    -0.79800
O1049       O  0.47015329  0.78179591  0.95710720    -0.80500
C1050       C  0.38225434  0.88388917  0.48787766     0.94700
O1051       O  0.48982443  0.88055591  0.50460673    -0.78500
O1052       O  0.32278876  0.75173218  0.49743118    -0.83700
C1053       C  0.39593710  0.72792788  0.52972593     0.97400
C1054       C  0.31409996  0.73551078  0.96556465     1.03300
O1055       O  0.39164005  0.72045760  0.49644343    -0.79300
C1056       C  0.48023338  0.87615154  0.53726189     1.01600
Fe1057     Fe  0.95714481  0.12454142  0.12708549     1.65800
Fe1058     Fe  0.87673277  0.09840793  0.06942789     1.73200
Fe1059     Fe  0.90049817  0.17827845  0.13110002     1.54400
O1060       O  0.88297141  0.14364018  0.17735696    -0.83000
O1061       O  0.87803599  0.15522670  0.04763656    -0.81400
O1062       O  0.92864052  0.11661973  0.17825257    -0.85600
O1063       O  0.98965134  0.19037565  0.12636714    -0.80400
O1064       O  0.83836484  0.14603271  0.11485324    -0.82200
O1065       O  0.93359024  0.11612183  0.03754623    -0.84900
C1066       C  0.98782001  0.20863167  0.15409179     0.95800
C1067       C  0.89987327  0.12361065  0.19276284     1.03300
O1068       O  0.91128946  0.13274489  0.10928331    -1.13900
O1069       O  0.86968588  0.03800641  0.08783083    -0.76300
O1070       O  0.92526688  0.05803984  0.12524516    -0.79800
O1071       O  0.95949890  0.21950994  0.15583036    -0.80500
C1072       C  0.88957344  0.02898880  0.11175697     0.94700
O1073       O  0.98497214  0.12931073  0.07813041    -0.78500
O1074       O  0.82089024  0.07923340  0.10162369    -0.83700
C1075       C  0.89779168  0.19651646  0.05480404     0.97400
C1076       C  0.81384579  0.10568794  0.11928844     1.03300
O1077       O  0.91726486  0.21218839  0.08424414    -0.79300
C1078       C  0.97312034  0.12746093  0.04605825     1.01600
Fe1079     Fe  0.85949142  0.41415349  0.38387204     1.65800
Fe1080     Fe  0.78965439  0.42260709  0.44056361     1.73200
Fe1081     Fe  0.75307627  0.35549391  0.37007875     1.54400
O1082       O  0.78656773  0.37695203  0.32335688    -0.83000
O1083       O  0.74646230  0.36266237  0.46392989    -0.81400
O1084       O  0.85141257  0.43526064  0.33515882    -0.85600
O1085       O  0.83899560  0.35379647  0.36146496    -0.80400
O1086       O  0.74742408  0.40882188  0.36192608    -0.82200
O1087       O  0.84023326  0.41883621  0.46980777    -0.84900
C1088       C  0.80432568  0.31777632  0.35465800     0.95800
C1089       C  0.82112192  0.41113818  0.31384599     1.03300
O1090       O  0.80070307  0.39484337  0.39982721    -1.13900
O1091       O  0.82977429  0.48484519  0.41757855    -0.76300
O1092       O  0.88607550  0.47762320  0.40329399    -0.79800
O1093       O  0.76826995  0.30664374  0.37037592    -0.80500
C1094       C  0.86680319  0.49968787  0.40249771     0.94700
O1095       O  0.86889402  0.39269135  0.43031675    -0.78500
O1096       O  0.73515533  0.42325739  0.41556001    -0.83700
C1097       C  0.71395008  0.33012318  0.44931687     0.97400
C1098       C  0.72677297  0.41930989  0.38220229     1.03300
O1099       O  0.71034546  0.32690378  0.41520670    -0.79300
C1100       C  0.86210167  0.39969599  0.46188443     1.01600
Fe1101     Fe  0.89541945  0.36227113  0.28793903     1.65800
Fe1102     Fe  0.91439740  0.29860500  0.23087034     1.73200
Fe1103     Fe  0.84912758  0.25515102  0.30316938     1.54400
O1104       O  0.87130034  0.28510488  0.34974890    -0.83000
O1105       O  0.85557362  0.25333296  0.20780658    -0.81400
O1106       O  0.91130936  0.35633454  0.33948885    -0.85600
O1107       O  0.82816634  0.33124697  0.29600624    -0.80400
O1108       O  0.90878532  0.26079915  0.30553420    -0.82200
O1109       O  0.90902150  0.34761157  0.20096363    -0.84900
C1110       C  0.80608002  0.30168842  0.31883403     0.95800
C1111       C  0.89748756  0.32345391  0.35958991     1.03300
O1112       O  0.88356476  0.30542963  0.27248405    -1.13900
O1113       O  0.97503686  0.34202950  0.25485910    -0.76300
O1114       O  0.96285516  0.39312456  0.27811823    -0.79800
O1115       O  0.79525506  0.26232042  0.31193168    -0.80500
C1116       C  0.98719094  0.37630870  0.27372926     0.94700
O1117       O  0.88191420  0.37522041  0.23976855    -0.78500
O1118       O  0.91823490  0.24438662  0.25313432    -0.83700
C1119       C  0.82361392  0.22016384  0.22265876     0.97400
C1120       C  0.91592273  0.23717291  0.28641112     1.03300
O1121       O  0.82051599  0.21561462  0.25676647    -0.79300
C1122       C  0.89024212  0.36964931  0.20853204     1.01600
Fe1123     Fe  0.54316506  0.39213344  0.37893836     1.65800
Fe1124     Fe  0.62194328  0.41880505  0.31926579     1.73200
Fe1125     Fe  0.59909645  0.33788936  0.38017702     1.54400
O1126       O  0.61874278  0.37224097  0.42673663    -0.83000
O1127       O  0.61998239  0.36197032  0.29649739    -0.81400
O1128       O  0.57276504  0.39881491  0.42920837    -0.85600
O1129       O  0.51093705  0.32627553  0.37726428    -0.80400
O1130       O  0.65989687  0.36972291  0.36137162    -0.82200
O1131       O  0.56393496  0.40149882  0.28887995    -0.84900
C1132       C  0.51253930  0.30774309  0.40494410     0.95800
C1133       C  0.60204075  0.39204166  0.44288050     1.03300
O1134       O  0.58836273  0.38409982  0.35959576    -1.13900
O1135       O  0.62955331  0.47923710  0.33849034    -0.76300
O1136       O  0.57534344  0.45870679  0.37769227    -0.79800
O1137       O  0.54092512  0.29697257  0.40658139    -0.80500
C1138       C  0.61036437  0.48806278  0.36324435     0.94700
O1139       O  0.51416670  0.38876733  0.33110219    -0.78500
O1140       O  0.67885944  0.43732675  0.35019082    -0.83700
C1141       C  0.60023034  0.32054316  0.30353141     0.97400
C1142       C  0.68524566  0.40961651  0.36670217     1.03300
O1143       O  0.58053406  0.30457673  0.33303909    -0.79300
C1144       C  0.52483295  0.39076720  0.29865531     1.01600
Fe1145     Fe  0.64679985  0.11365973  0.13414812     1.65800
Fe1146     Fe  0.71046452  0.09467955  0.19122182     1.73200
Fe1147     Fe  0.75392481  0.15993933  0.11892040     1.54400
O1148       O  0.72396898  0.13776664  0.07234079    -0.83000
O1149       O  0.75573963  0.15350054  0.21428344    -0.81400
O1150       O  0.65273401  0.09777052  0.08259875    -0.85600
O1151       O  0.67783260  0.18090985  0.12607922    -0.80400
O1152       O  0.74826391  0.10027902  0.11656294    -0.82200
O1153       O  0.66146000  0.10006299  0.22112591    -0.84900
C1154       C  0.70739403  0.20299263  0.10325176     0.95800
C1155       C  0.68561673  0.11158789  0.06249832     1.03300
O1156       O  0.70364245  0.12550967  0.14960534    -1.13900
O1157       O  0.66703494  0.03404272  0.16723510    -0.76300
O1158       O  0.61594181  0.04622679  0.14396849    -0.79800
O1159       O  0.74676353  0.21381294  0.11015422    -0.80500
C1160       C  0.63275666  0.02189087  0.14836108     0.94700
O1161       O  0.63385135  0.12716713  0.18231757    -0.78500
O1162       O  0.76468333  0.09083602  0.16896158    -0.83700
C1163       C  0.78891016  0.18545821  0.19943096     0.97400
C1164       C  0.77189427  0.09314451  0.13568477     1.03300
O1165       O  0.79346217  0.18855217  0.16532344    -0.79300
C1166       C  0.63942570  0.11884530  0.21355506     1.01600
Fe1167     Fe  0.63890614  0.05521496  0.46061305     1.65800
Fe1168     Fe  0.70411071  0.12826057  0.40014905     1.73200
Fe1169     Fe  0.74670892  0.10330636  0.46977768     1.54400
O1170       O  0.71364588  0.09211632  0.01675102    -0.83000
O1171       O  0.74706197  0.11084706  0.37912178    -0.81400
O1172       O  0.65073890  0.09072612  0.00639236    -0.85600
O1173       O  0.66135603  0.01933963  0.48597897    -0.80400
O1174       O  0.76385208  0.16576995  0.47931712    -0.82200
O1175       O  0.65396849  0.06902937  0.37352415    -0.84900
C1176       C  0.69554576  0.01618643  0.48555306     0.95800
C1177       C  0.68208506  0.09695550  0.02662216     1.03300
O1178       O  0.69680941  0.09550254  0.44286162    -1.13900
O1179       O  0.66237323  0.14995346  0.41965407    -0.76300
O1180       O  0.60874879  0.08585698  0.43611262    -0.79800
O1181       O  0.72726446  0.03892103  0.46497986    -0.80500
C1182       C  0.62517814  0.12682708  0.43420935     0.94700
O1183       O  0.62849219  0.01925171  0.41748708    -0.78500
O1184       O  0.75733553  0.18627643  0.42465154    -0.83700
C1185       C  0.78114032  0.11312591  0.39236193     0.97400
C1186       C  0.77355989  0.19496717  0.45651733     1.03300
O1187       O  0.78861134  0.11742544  0.42564389    -0.79300
C1188       C  0.63290603  0.02883622  0.38483054     1.01600
Fe1189     Fe  0.54625454  0.14675193  0.21223726     1.65800
Fe1190     Fe  0.61930464  0.21293570  0.27209451     1.73200
Fe1191     Fe  0.59487916  0.25459725  0.20126688     1.54400
O1192       O  0.58459673  0.22105589  0.15429911    -0.83000
O1193       O  0.60107017  0.25562729  0.29221795    -0.81400
O1194       O  0.58025053  0.15680848  0.16580015    -0.85600
O1195       O  0.51051019  0.16888836  0.18612959    -0.80400
O1196       O  0.65757524  0.27198644  0.19236721    -0.82200
O1197       O  0.56065464  0.16291314  0.29923957    -0.84900
C1198       C  0.50772676  0.20325933  0.18565692     0.95800
C1199       C  0.58605333  0.18741634  0.14470821     1.03300
O1200       O  0.58695417  0.20496722  0.22894749    -1.13900
O1201       O  0.64130465  0.17117049  0.25368784    -0.76300
O1202       O  0.57743432  0.11716468  0.23721806    -0.79800
O1203       O  0.53051798  0.23526826  0.20569363    -0.80500
C1204       C  0.61847928  0.13383851  0.23945200     0.94700
O1205       O  0.51072842  0.13746709  0.25571327    -0.78500
O1206       O  0.67724778  0.26611280  0.24746212    -0.83700
C1207       C  0.60294061  0.28938299  0.27857949     0.97400
C1208       C  0.68635653  0.28217190  0.21550963     1.03300
O1209       O  0.60782990  0.29676699  0.24519559    -0.79300
C1210       C  0.52050126  0.14193442  0.28828017     1.01600
Fe1211     Fe  0.86235687  0.46283201  0.20985189     1.65800
Fe1212     Fe  0.79616552  0.38979559  0.14998823     1.73200
Fe1213     Fe  0.75450377  0.41421699  0.22081726     1.54400
O1214       O  0.78804377  0.42449348  0.26778522    -0.83000
O1215       O  0.75347243  0.40803272  0.12986780    -0.81400
O1216       O  0.85229280  0.42883402  0.25628762    -0.85600
O1217       O  0.84022169  0.49857786  0.23595972    -0.80400
O1218       O  0.73710608  0.35152248  0.22971452    -0.82200
O1219       O  0.84618844  0.44844580  0.12284547    -0.84900
C1220       C  0.80584485  0.00136000  0.23643210     0.95800
C1221       C  0.82168272  0.42303337  0.27737776     1.03300
O1222       O  0.80413698  0.42213957  0.19313800    -1.13900
O1223       O  0.83793026  0.36779031  0.16839041    -0.76300
O1224       O  0.89194176  0.43164901  0.18487290    -0.79800
O1225       O  0.77384105  0.47857538  0.21638974    -0.80500
C1226       C  0.87526117  0.39060595  0.18263353     0.94700
O1227       O  0.87165218  0.49836179  0.16637706    -0.78500
O1228       O  0.74298700  0.33185390  0.17461987    -0.83700
C1229       C  0.71971514  0.40616293  0.14350794     0.97400
C1230       C  0.72692600  0.32274371  0.20657211     1.03300
O1231       O  0.71233187  0.40127172  0.17689080    -0.79300
C1232       C  0.86717394  0.48859502  0.13380891     1.01600
Fe1233     Fe  0.59492686  0.14960368  0.03821333     1.65800
Fe1234     Fe  0.58648159  0.21944622  0.48152760     1.73200
Fe1235     Fe  0.65360852  0.25601269  0.05200913     1.54400
O1236       O  0.63214351  0.22252090  0.09873026    -0.83000
O1237       O  0.64642874  0.26263746  0.45815959    -0.81400
O1238       O  0.57382133  0.15768686  0.08692681    -0.85600
O1239       O  0.65528216  0.17008518  0.06062177    -0.80400
O1240       O  0.60029644  0.26169228  0.06017064    -0.82200
O1241       O  0.59024763  0.16886800  0.45227974    -0.84900
C1242       C  0.69130867  0.20474909  0.06742686     0.95800
C1243       C  0.59794919  0.18797352  0.10824022     1.03300
O1244       O  0.61424548  0.20839237  0.02226143    -1.13900
O1245       O  0.52424014  0.17933062  0.50451360    -0.76300
O1246       O  0.53145731  0.12302755  0.01878746    -0.79800
O1247       O  0.70244873  0.24080188  0.05170570    -0.80500
C1248       C  0.50939402  0.14230074  0.01958916     0.94700
O1249       O  0.61638794  0.14019980  0.49176855    -0.78500
O1250       O  0.58583643  0.27394213  0.50653620    -0.83700
C1251       C  0.67897370  0.29514462  0.47277224     0.97400
C1252       C  0.58979618  0.28233227  0.03989297     1.03300
O1253       O  0.68220158  0.29874236  0.50688240    -0.79300
C1254       C  0.60938143  0.14699269  0.46020135     1.01600
Fe1255     Fe  0.61693455  0.46591576  0.04315059     1.65800
Fe1256     Fe  0.59028051  0.38714805  0.10282520     1.73200
Fe1257     Fe  0.67120465  0.41000884  0.04191482     1.54400
O1258       O  0.63685487  0.39035730  0.49535508    -0.83000
O1259       O  0.64712301  0.38911832  0.12559215    -0.81400
O1260       O  0.61025906  0.43631540  0.49288118    -0.85600
O1261       O  0.68279511  0.49815374  0.04482379    -0.80400
O1262       O  0.63937783  0.34921043  0.06071899    -0.82200
O1263       O  0.60757935  0.44515223  0.13320985    -0.84900
C1264       C  0.70132681  0.99655505  0.01714641     0.95800
C1265       C  0.61704399  0.40704951  0.47920998     1.03300
O1266       O  0.62498264  0.42072966  0.06249468    -1.13900
O1267       O  0.52984000  0.37952542  0.08360184    -0.76300
O1268       O  0.55035822  0.43372823  0.04439782    -0.79800
O1269       O  0.71211505  0.46817982  0.01551120    -0.80500
C1270       C  0.52100712  0.39870612  0.05884682     0.94700
O1271       O  0.62029493  0.49491210  0.09098648    -0.78500
O1272       O  0.57176674  0.33023692  0.07190069    -0.83700
C1273       C  0.68855339  0.40887533  0.11855793     0.97400
C1274       C  0.59948241  0.32385651  0.05538996     1.03300
O1275       O  0.70451834  0.42857583  0.08905271    -0.79300
C1276       C  0.61830135  0.48424937  0.12343367     1.01600
Fe1277     Fe  0.88455974  0.05194505  0.29500617     1.65800
Fe1278     Fe  0.91067429  0.13234429  0.35266716     1.73200
Fe1279     Fe  0.83079787  0.10856927  0.29099349     1.54400
O1280       O  0.86543739  0.12610195  0.24473698    -0.83000
O1281       O  0.85384682  0.13103068  0.37445676    -0.81400
O1282       O  0.89247571  0.08044933  0.24383977    -0.85600
O1283       O  0.81872287  0.01942846  0.29572367    -0.80400
O1284       O  0.86303603  0.17070052  0.30723898    -0.82200
O1285       O  0.89296707  0.07548806  0.38454620    -0.84900
C1286       C  0.80046522  0.02125841  0.26799888     0.95800
C1287       C  0.88547424  0.10921035  0.22933033     1.03300
O1288       O  0.87634146  0.09778873  0.31281026    -1.13900
O1289       O  0.97108544  0.13940534  0.33426492    -0.76300
O1290       O  0.95106456  0.08383279  0.29684782    -0.79800
O1291       O  0.78957388  0.04956885  0.26626345    -0.80500
C1292       C  0.98011034  0.11952610  0.31033676     0.94700
O1293       O  0.87979679  0.02411701  0.34395979    -0.78500
O1294       O  0.92984131  0.18818403  0.32047319    -0.83700
C1295       C  0.81255425  0.11127295  0.36728715     0.97400
C1296       C  0.90338295  0.19522375  0.30280672     1.03300
O1297       O  0.79688460  0.09179806  0.33784852    -0.79300
C1298       C  0.88163948  0.03596374  0.37603270     1.01600
Fe1299     Fe  0.95386741  0.37015091  0.46147616     1.65800
Fe1300     Fe  0.88080826  0.30495393  0.02193372     1.73200
Fe1301     Fe  0.90576678  0.26235569  0.45230744     1.54400
O1302       O  0.91696010  0.29542053  0.40533440    -0.83000
O1303       O  0.89821841  0.26200408  0.04296477    -0.81400
O1304       O  0.91835684  0.35832670  0.41569629    -0.85600
O1305       O  0.98974080  0.34770028  0.43610948    -0.80400
O1306       O  0.84330057  0.24521781  0.44276643    -0.82200
O1307       O  0.94003913  0.35509551  0.04856074    -0.84900
C1308       C  0.99289535  0.31351373  0.43653419     0.95800
C1309       C  0.91212346  0.32698198  0.39546514     1.03300
O1310       O  0.91357262  0.31225200  0.47922425    -1.13900
O1311       O  0.85912137  0.34669192  0.00242380    -0.76300
O1312       O  0.92322928  0.40031040  0.48597853    -0.79800
O1313       O  0.97015551  0.28179281  0.45710328    -0.80500
C1314       C  0.88225741  0.38388791  0.98787559     0.94700
O1315       O  0.98982737  0.38055313  0.00460353    -0.78500
O1316       O  0.82279034  0.25173143  0.99743100    -0.83700
C1317       C  0.89594061  0.22792807  0.02972696     0.97400
C1318       C  0.81410067  0.23550799  0.46556541     1.03300
O1319       O  0.89164491  0.22045655  0.99644391    -0.79300
C1320       C  0.98023653  0.37615073  0.03725853     1.01600
Fe1321     Fe  0.95714465  0.12454133  0.62708545     1.65800
Fe1322     Fe  0.87673271  0.09840800  0.56942782     1.73200
Fe1323     Fe  0.90049805  0.17827837  0.63109999     1.54400
O1324       O  0.88297123  0.14364009  0.67735693    -0.83000
O1325       O  0.87803589  0.15522662  0.54763636    -0.81400
O1326       O  0.92864041  0.11661973  0.67825263    -0.85600
O1327       O  0.98965126  0.19037548  0.62636725    -0.80400
O1328       O  0.83836463  0.14603270  0.61485307    -0.82200
O1329       O  0.93359011  0.11612171  0.53754620    -0.84900
C1330       C  0.98782001  0.20863162  0.65409186     0.95800
C1331       C  0.89987338  0.12361050  0.69276291     1.03300
O1332       O  0.91128940  0.13274492  0.60928320    -1.13900
O1333       O  0.86968565  0.03800638  0.58783083    -0.76300
O1334       O  0.92526672  0.05803974  0.62524502    -0.79800
O1335       O  0.95949878  0.21950982  0.65583038    -0.80500
C1336       C  0.88957350  0.02898880  0.61175694     0.94700
O1337       O  0.98497214  0.12931076  0.57813035    -0.78500
O1338       O  0.82089020  0.07923348  0.60162358    -0.83700
C1339       C  0.89779202  0.19651712  0.55480448     0.97400
C1340       C  0.81384571  0.10568807  0.61928839     1.03300
O1341       O  0.91726466  0.21218829  0.58424396    -0.79300
C1342       C  0.97312046  0.12746102  0.54605827     1.01600
Fe1343     Fe  0.85949138  0.41415352  0.88387201     1.65800
Fe1344     Fe  0.78965452  0.42260706  0.94056366     1.73200
Fe1345     Fe  0.75307627  0.35549392  0.87007874     1.54400
O1346       O  0.78656751  0.37695193  0.82335685    -0.83000
O1347       O  0.74646247  0.36266249  0.96393003    -0.81400
O1348       O  0.85141243  0.43526049  0.83515879    -0.85600
O1349       O  0.83899559  0.35379647  0.86146497    -0.80400
O1350       O  0.74742410  0.40882189  0.86192610    -0.82200
O1351       O  0.84023339  0.41883618  0.96980782    -0.84900
C1352       C  0.80432558  0.31777631  0.85465796     0.95800
C1353       C  0.82112180  0.41113816  0.81384591     1.03300
O1354       O  0.80070309  0.39484341  0.89982719    -1.13900
O1355       O  0.82977442  0.48484516  0.91757861    -0.76300
O1356       O  0.88607561  0.47762322  0.90329388    -0.79800
O1357       O  0.76826995  0.30664377  0.87037595    -0.80500
C1358       C  0.86680319  0.49968794  0.90249767     0.94700
O1359       O  0.86889408  0.39269142  0.93031670    -0.78500
O1360       O  0.73515543  0.42325739  0.91556009    -0.83700
C1361       C  0.71394955  0.33012262  0.94931631     0.97400
C1362       C  0.72677292  0.41930981  0.88220237     1.03300
O1363       O  0.71034541  0.32690382  0.91520692    -0.79300
C1364       C  0.86210160  0.39969592  0.96188451     1.01600
Fe1365     Fe  0.89541944  0.36227114  0.78793907     1.65800
Fe1366     Fe  0.91439746  0.29860496  0.73087040     1.73200
Fe1367     Fe  0.84912768  0.25515105  0.80316938     1.54400
O1368       O  0.87130024  0.28510458  0.84974886    -0.83000
O1369       O  0.85557375  0.25333298  0.70780662    -0.81400
O1370       O  0.91130922  0.35633428  0.83948898    -0.85600
O1371       O  0.82816641  0.33124691  0.79600632    -0.80400
O1372       O  0.90878552  0.26079935  0.80553414    -0.82200
O1373       O  0.90902151  0.34761147  0.70096379    -0.84900
C1374       C  0.80607992  0.30168839  0.81883400     0.95800
C1375       C  0.89748808  0.32345476  0.85958986     1.03300
O1376       O  0.88356478  0.30542964  0.77248405    -1.13900
O1377       O  0.97503687  0.34202947  0.75485918    -0.76300
O1378       O  0.96285513  0.39312454  0.77811831    -0.79800
O1379       O  0.79525507  0.26232036  0.81193176    -0.80500
C1380       C  0.98719107  0.37630867  0.77372919     0.94700
O1381       O  0.88191421  0.37522047  0.73976862    -0.78500
O1382       O  0.91823496  0.24438665  0.75313432    -0.83700
C1383       C  0.82361387  0.22016389  0.72265889     0.97400
C1384       C  0.91592270  0.23717292  0.78641109     1.03300
O1385       O  0.82051607  0.21561477  0.75676651    -0.79300
C1386       C  0.89024218  0.36964931  0.70853209     1.01600
Fe1387     Fe  0.54316501  0.39213358  0.87893843     1.65800
Fe1388     Fe  0.62194319  0.41880516  0.81926575     1.73200
Fe1389     Fe  0.59909645  0.33788951  0.88017694     1.54400
O1390       O  0.61874300  0.37224106  0.92673637    -0.83000
O1391       O  0.61998243  0.36197056  0.79649733    -0.81400
O1392       O  0.57276518  0.39881490  0.92920841    -0.85600
O1393       O  0.51093707  0.32627571  0.87726426    -0.80400
O1394       O  0.65989680  0.36972300  0.86137151    -0.82200
O1395       O  0.56393483  0.40149898  0.78887992    -0.84900
C1396       C  0.51253947  0.30774289  0.90494426     0.95800
C1397       C  0.60204018  0.39204195  0.94288041     1.03300
O1398       O  0.58836269  0.38410000  0.85959578    -1.13900
O1399       O  0.62955339  0.47923724  0.83849031    -0.76300
O1400       O  0.57534354  0.45870704  0.87769226    -0.79800
O1401       O  0.54092516  0.29697275  0.90658137    -0.80500
C1402       C  0.61036407  0.48806270  0.86324444     0.94700
O1403       O  0.51416656  0.38876730  0.83110225    -0.78500
O1404       O  0.67885935  0.43732688  0.85019083    -0.83700
C1405       C  0.60023019  0.32054305  0.80353145     0.97400
C1406       C  0.68524561  0.40961656  0.86670209     1.03300
O1407       O  0.58053408  0.30457692  0.83303898    -0.79300
C1408       C  0.52483288  0.39076729  0.79865528     1.01600
Fe1409     Fe  0.64679976  0.11365973  0.63414811     1.65800
Fe1410     Fe  0.71046441  0.09467950  0.69122189     1.73200
Fe1411     Fe  0.75392469  0.15993928  0.61892045     1.54400
O1412       O  0.72396885  0.13776658  0.57234087    -0.83000
O1413       O  0.75573955  0.15350048  0.71428353    -0.81400
O1414       O  0.65273390  0.09777043  0.58259875    -0.85600
O1415       O  0.67783245  0.18090982  0.62607928    -0.80400
O1416       O  0.74826389  0.10027908  0.61656303    -0.82200
O1417       O  0.66145994  0.10006290  0.72112595    -0.84900
C1418       C  0.70739437  0.20299284  0.60325169     0.95800
C1419       C  0.68561640  0.11158769  0.56249838     1.03300
O1420       O  0.70364233  0.12550962  0.64960537    -1.13900
O1421       O  0.66703494  0.03404268  0.66723520    -0.76300
O1422       O  0.61594175  0.04622670  0.64396863    -0.79800
O1423       O  0.74676335  0.21381280  0.61015427    -0.80500
C1424       C  0.63275654  0.02189088  0.64836108     0.94700
O1425       O  0.63385133  0.12716706  0.68231757    -0.78500
O1426       O  0.76468329  0.09083610  0.66896170    -0.83700
C1427       C  0.78891018  0.18545836  0.69943096     0.97400
C1428       C  0.77189421  0.09314447  0.63568490     1.03300
O1429       O  0.79346212  0.18855212  0.66532351    -0.79300
C1430       C  0.63942554  0.11884521  0.71355499     1.01600
Fe1431     Fe  0.63890609  0.05521478  0.96061312     1.65800
Fe1432     Fe  0.70411068  0.12826055  0.90014917     1.73200
Fe1433     Fe  0.74670895  0.10330632  0.96977775     1.54400
O1434       O  0.71364578  0.09211635  0.51675102    -0.83000
O1435       O  0.74706175  0.11084703  0.87912184    -0.81400
O1436       O  0.65073883  0.09072616  0.50639232    -0.85600
O1437       O  0.66135612  0.01933955  0.98597914    -0.80400
O1438       O  0.76385222  0.16577009  0.97931705    -0.82200
O1439       O  0.65396853  0.06902948  0.87352417    -0.84900
C1440       C  0.69554563  0.01618628  0.98555321     0.95800
C1441       C  0.68208512  0.09695544  0.52662218     1.03300
O1442       O  0.69680937  0.09550240  0.94286169    -1.13900
O1443       O  0.66237329  0.14995345  0.91965417    -0.76300
O1444       O  0.60874884  0.08585692  0.93611263    -0.79800
O1445       O  0.72726452  0.03892102  0.96497986    -0.80500
C1446       C  0.62517823  0.12682715  0.93420937     0.94700
O1447       O  0.62849218  0.01925161  0.91748697    -0.78500
O1448       O  0.75733558  0.18627640  0.92465145    -0.83700
C1449       C  0.78114038  0.11312592  0.89236221     0.97400
C1450       C  0.77355996  0.19496711  0.95651752     1.03300
O1451       O  0.78861122  0.11742531  0.92564383    -0.79300
C1452       C  0.63290591  0.02883605  0.88483075     1.01600
Fe1453     Fe  0.54625444  0.14675186  0.71223726     1.65800
Fe1454     Fe  0.61930465  0.21293575  0.77209438     1.73200
Fe1455     Fe  0.59487915  0.25459723  0.70126689     1.54400
O1456       O  0.58459668  0.22105590  0.65429914    -0.83000
O1457       O  0.60107013  0.25562731  0.79221786    -0.81400
O1458       O  0.58025037  0.15680841  0.66580011    -0.85600
O1459       O  0.51051014  0.16888839  0.68612959    -0.80400
O1460       O  0.65757529  0.27198645  0.69236722    -0.82200
O1461       O  0.56065468  0.16291315  0.79923942    -0.84900
C1462       C  0.50772669  0.20325933  0.68565697     0.95800
C1463       C  0.58605332  0.18741622  0.64470826     1.03300
O1464       O  0.58695424  0.20496717  0.72894738    -1.13900
O1465       O  0.64130452  0.17117040  0.75368779    -0.76300
O1466       O  0.57743418  0.11716461  0.73721800    -0.79800
O1467       O  0.53051796  0.23526825  0.70569374    -0.80500
C1468       C  0.61847924  0.13383850  0.73945191     0.94700
O1469       O  0.51072829  0.13746702  0.75571329    -0.78500
O1470       O  0.67724787  0.26611281  0.74746210    -0.83700
C1471       C  0.60294063  0.28938323  0.77857924     0.97400
C1472       C  0.68635655  0.28217198  0.71550923     1.03300
O1473       O  0.60782998  0.29676703  0.74519555    -0.79300
C1474       C  0.52050136  0.14193438  0.78828018     1.01600
Fe1475     Fe  0.86235685  0.46283199  0.70985188     1.65800
Fe1476     Fe  0.79616561  0.38979572  0.64998814     1.73200
Fe1477     Fe  0.75450376  0.41421701  0.72081727     1.54400
O1478       O  0.78804369  0.42449341  0.76778521    -0.83000
O1479       O  0.75347251  0.40803292  0.62986773    -0.81400
O1480       O  0.85229273  0.42883396  0.75628760    -0.85600
O1481       O  0.84022153  0.49857784  0.73595985    -0.80400
O1482       O  0.73710625  0.35152251  0.72971444    -0.82200
O1483       O  0.84618864  0.44844595  0.62284548    -0.84900
C1484       C  0.80584410  0.00135979  0.73643182     0.95800
C1485       C  0.82168250  0.42303324  0.77737781     1.03300
O1486       O  0.80413692  0.42213955  0.69313799    -1.13900
O1487       O  0.83793031  0.36779041  0.66839035    -0.76300
O1488       O  0.89194188  0.43164902  0.68487298    -0.79800
O1489       O  0.77384094  0.47857533  0.71638969    -0.80500
C1490       C  0.87526126  0.39060596  0.68263360     0.94700
O1491       O  0.87165232  0.49836191  0.66637710    -0.78500
O1492       O  0.74298713  0.33185403  0.67461970    -0.83700
C1493       C  0.71971544  0.40616298  0.64350780     0.97400
C1494       C  0.72692606  0.32274389  0.70657231     1.03300
O1495       O  0.71233188  0.40127160  0.67689076    -0.79300
C1496       C  0.86717390  0.48859496  0.63380876     1.01600
Fe1497     Fe  0.59492691  0.14960365  0.53821337     1.65800
Fe1498     Fe  0.58648162  0.21944627  0.98152756     1.73200
Fe1499     Fe  0.65360842  0.25601271  0.55200906     1.54400
O1500       O  0.63214342  0.22252102  0.59873029    -0.83000
O1501       O  0.64642860  0.26263728  0.95815953    -0.81400
O1502       O  0.57382146  0.15768684  0.58692685    -0.85600
O1503       O  0.65528239  0.17008535  0.56062175    -0.80400
O1504       O  0.60029638  0.26169231  0.56017057    -0.82200
O1505       O  0.59024766  0.16886804  0.95227976    -0.84900
C1506       C  0.69130835  0.20474879  0.56742696     0.95800
C1507       C  0.59794940  0.18797366  0.60824027     1.03300
O1508       O  0.61424549  0.20839231  0.52226145    -1.13900
O1509       O  0.52424016  0.17933063  0.00451356    -0.76300
O1510       O  0.53145734  0.12302756  0.51878757    -0.79800
O1511       O  0.70244867  0.24080214  0.55170576    -0.80500
C1512       C  0.50939409  0.14230072  0.51958936     0.94700
O1513       O  0.61638794  0.14019978  0.99176854    -0.78500
O1514       O  0.58583639  0.27394206  0.00653623    -0.83700
C1515       C  0.67897420  0.29514505  0.97277295     0.97400
C1516       C  0.58979618  0.28233240  0.53989281     1.03300
O1517       O  0.68220160  0.29874221  0.00688230    -0.79300
C1518       C  0.60938150  0.14699269  0.96020137     1.01600
Fe1519     Fe  0.61693474  0.46591591  0.54315062     1.65800
Fe1520     Fe  0.59028060  0.38714816  0.60282522     1.73200
Fe1521     Fe  0.67120478  0.41000898  0.54191488     1.54400
O1522       O  0.63685464  0.39035727  0.99535492    -0.83000
O1523       O  0.64712312  0.38911828  0.62559220    -0.81400
O1524       O  0.61025886  0.43631540  0.99288115    -0.85600
O1525       O  0.68279531  0.49815390  0.54482387    -0.80400
O1526       O  0.63937791  0.34921048  0.56071902    -0.82200
O1527       O  0.60757943  0.44515234  0.63320995    -0.84900
C1528       C  0.70132656  0.99655517  0.51714651     0.95800
C1529       C  0.61704427  0.40704894  0.97920999     1.03300
O1530       O  0.62498277  0.42072980  0.56249472    -1.13900
O1531       O  0.52984013  0.37952550  0.58360190    -0.76300
O1532       O  0.55035831  0.43372827  0.54439789    -0.79800
O1533       O  0.71211529  0.46818007  0.51551123    -0.80500
C1534       C  0.52100738  0.39870649  0.55884666     0.94700
O1535       O  0.62029502  0.49491219  0.59098652    -0.78500
O1536       O  0.57176688  0.33023710  0.57190072    -0.83700
C1537       C  0.68855324  0.40887523  0.61855810     0.97400
C1538       C  0.59948272  0.32385673  0.55538986     1.03300
O1539       O  0.70451843  0.42857598  0.58905277    -0.79300
C1540       C  0.61830137  0.48424921  0.62343400     1.01600
Fe1541     Fe  0.88455975  0.05194509  0.79500610     1.65800
Fe1542     Fe  0.91067417  0.13234423  0.85266703     1.73200
Fe1543     Fe  0.83079777  0.10856924  0.79099336     1.54400
O1544       O  0.86543736  0.12610191  0.74473687    -0.83000
O1545       O  0.85384677  0.13103064  0.87445666    -0.81400
O1546       O  0.89247561  0.08044919  0.74383977    -0.85600
O1547       O  0.81872282  0.01942845  0.79572350    -0.80400
O1548       O  0.86303588  0.17070042  0.80723897    -0.82200
O1549       O  0.89296688  0.07548807  0.88454617    -0.84900
C1550       C  0.80046558  0.02125813  0.76799917     0.95800
C1551       C  0.88547410  0.10921051  0.72933025     1.03300
O1552       O  0.87634132  0.09778869  0.81281017    -1.13900
O1553       O  0.97108540  0.13940537  0.83426478    -0.76300
O1554       O  0.95106462  0.08383283  0.79684772    -0.79800
O1555       O  0.78957371  0.04956885  0.76626346    -0.80500
C1556       C  0.98011035  0.11952619  0.81033681     0.94700
O1557       O  0.87979678  0.02411707  0.84395979    -0.78500
O1558       O  0.92984117  0.18818399  0.82047303    -0.83700
C1559       C  0.81255392  0.11127273  0.86728683     0.97400
C1560       C  0.90338278  0.19522370  0.80280660     1.03300
O1561       O  0.79688452  0.09179803  0.83784850    -0.79300
C1562       C  0.88163930  0.03596341  0.87603246     1.01600
Fe1563     Fe  0.95386748  0.37015089  0.96147609     1.65800
Fe1564     Fe  0.88080822  0.30495395  0.52193378     1.73200
Fe1565     Fe  0.90576688  0.26235565  0.95230745     1.54400
O1566       O  0.91696012  0.29542060  0.90533436    -0.83000
O1567       O  0.89821844  0.26200429  0.54296482    -0.81400
O1568       O  0.91835692  0.35832678  0.91569643    -0.85600
O1569       O  0.98974084  0.34770031  0.93610937    -0.80400
O1570       O  0.84330065  0.24521772  0.94276644    -0.82200
O1571       O  0.94003916  0.35509557  0.54856078    -0.84900
C1572       C  0.99289544  0.31351378  0.93653416     0.95800
C1573       C  0.91212351  0.32698111  0.89546507     1.03300
O1574       O  0.91357271  0.31225201  0.97922421    -1.13900
O1575       O  0.85912128  0.34669198  0.50242386    -0.76300
O1576       O  0.92322931  0.40031043  0.98597843    -0.79800
O1577       O  0.97015562  0.28179290  0.95710325    -0.80500
C1578       C  0.88225727  0.38388789  0.48787561     0.94700
O1579       O  0.98982735  0.38055311  0.50460354    -0.78500
O1580       O  0.82279027  0.25173138  0.49743103    -0.83700
C1581       C  0.89594047  0.22792768  0.52972630     0.97400
C1582       C  0.81410088  0.23550801  0.96556513     1.03300
O1583       O  0.89164490  0.22045670  0.49644400    -0.79300
C1584       C  0.98023639  0.37615060  0.53725878     1.01600
Fe1585     Fe  0.95714151  0.62453963  0.12708304     1.65800
Fe1586     Fe  0.87672966  0.59840669  0.06942532     1.73200
Fe1587     Fe  0.90049503  0.67827667  0.13109820     1.54400
O1588       O  0.88296802  0.64363790  0.17735516    -0.83000
O1589       O  0.87803304  0.65522597  0.04763422    -0.81400
O1590       O  0.92863751  0.61661785  0.17825018    -0.85600
O1591       O  0.98964783  0.69037333  0.12636521    -0.80400
O1592       O  0.83836212  0.64603144  0.11485065    -0.82200
O1593       O  0.93358772  0.61612067  0.03754370    -0.84900
C1594       C  0.98781615  0.70862843  0.15409036     0.95800
C1595       C  0.89987085  0.62360898  0.19276099     1.03300
O1596       O  0.91128614  0.63274318  0.10928098    -1.13900
O1597       O  0.86968238  0.53800475  0.08782872    -0.76300
O1598       O  0.92526414  0.55803846  0.12524223    -0.79800
O1599       O  0.95949576  0.71950750  0.15582887    -0.80500
C1600       C  0.88957090  0.52898749  0.11175472     0.94700
O1601       O  0.98496897  0.62930927  0.07812845    -0.78500
O1602       O  0.82088718  0.57923217  0.10162140    -0.83700
C1603       C  0.89778899  0.69651661  0.05480310     0.97400
C1604       C  0.81384348  0.60568696  0.11928676     1.03300
O1605       O  0.91726209  0.71218704  0.08424238    -0.79300
C1606       C  0.97311731  0.62745944  0.04605591     1.01600
Fe1607     Fe  0.85948935  0.91415467  0.38387392     1.65800
Fe1608     Fe  0.78965175  0.92260787  0.44056457     1.73200
Fe1609     Fe  0.75307438  0.85549416  0.37007978     1.54400
O1610       O  0.78656651  0.87695307  0.32335831    -0.83000
O1611       O  0.74646271  0.86266528  0.46393169    -0.81400
O1612       O  0.85141120  0.93526198  0.33516052    -0.85600
O1613       O  0.83899422  0.85379809  0.36146617    -0.80400
O1614       O  0.74741916  0.90882004  0.36192664    -0.82200
O1615       O  0.84023087  0.91883781  0.46980923    -0.84900
C1616       C  0.80432470  0.81777782  0.35465962     0.95800
C1617       C  0.82112102  0.91113923  0.31384747     1.03300
O1618       O  0.80070082  0.89484461  0.39982836    -1.13900
O1619       O  0.82977105  0.98484585  0.41757957    -0.76300
O1620       O  0.88607270  0.97762403  0.40329633    -0.79800
O1621       O  0.76826919  0.80664498  0.37037810    -0.80500
C1622       C  0.86680034  0.99968862  0.40249936     0.94700
O1623       O  0.86889064  0.89269154  0.43031867    -0.78500
O1624       O  0.73515227  0.92325690  0.41556099    -0.83700
C1625       C  0.71394268  0.83011757  0.44930971     0.97400
C1626       C  0.72676859  0.91930827  0.38220352     1.03300
O1627       O  0.71034387  0.82690423  0.41520983    -0.79300
C1628       C  0.86209846  0.89969668  0.46188623     1.01600
Fe1629     Fe  0.89541692  0.86227178  0.28794014     1.65800
Fe1630     Fe  0.91439525  0.79860518  0.23087254     1.73200
Fe1631     Fe  0.84912528  0.75515167  0.30317183     1.54400
O1632       O  0.87129847  0.78510707  0.34975133    -0.83000
O1633       O  0.85557168  0.75333303  0.20780890    -0.81400
O1634       O  0.91130792  0.85633653  0.33948993    -0.85600
O1635       O  0.82816416  0.83124798  0.29600769    -0.80400
O1636       O  0.90878204  0.76079745  0.30553759    -0.82200
O1637       O  0.90901968  0.84761155  0.20096542    -0.84900
C1638       C  0.80607775  0.80168938  0.31883558     0.95800
C1639       C  0.89748638  0.82345687  0.35959153     1.03300
O1640       O  0.88356279  0.80543000  0.27248621    -1.13900
O1641       O  0.97503421  0.84202952  0.25486145    -0.76300
O1642       O  0.96285244  0.89312529  0.27811882    -0.79800
O1643       O  0.79525279  0.76232157  0.31193309    -0.80500
C1644       C  0.98718781  0.87630912  0.27373139     0.94700
O1645       O  0.88191046  0.87521923  0.23976959    -0.78500
O1646       O  0.91823307  0.74438762  0.25313671    -0.83700
C1647       C  0.82361178  0.72016364  0.22266126     0.97400
C1648       C  0.91592071  0.73717281  0.28641326     1.03300
O1649       O  0.82051384  0.71561474  0.25676880    -0.79300
C1650       C  0.89023954  0.86964880  0.20853334     1.01600
Fe1651     Fe  0.54316118  0.89213468  0.37894089     1.65800
Fe1652     Fe  0.62193864  0.91880394  0.31926836     1.73200
Fe1653     Fe  0.59909071  0.83788792  0.38017966     1.54400
O1654       O  0.61873732  0.87223955  0.42673941    -0.83000
O1655       O  0.61997631  0.86196853  0.29650027    -0.81400
O1656       O  0.57276314  0.89881788  0.42921047    -0.85600
O1657       O  0.51093338  0.82627700  0.37726791    -0.80400
O1658       O  0.65989152  0.86972089  0.36137483    -0.82200
O1659       O  0.56393094  0.90149904  0.28888276    -0.84900
C1660       C  0.51253554  0.80774450  0.40494765     0.95800
C1661       C  0.60203712  0.89204293  0.44288287     1.03300
O1662       O  0.58835794  0.88409934  0.35959840    -1.13900
O1663       O  0.62955028  0.97923656  0.33849278    -0.76300
O1664       O  0.57533907  0.95870796  0.37769308    -0.79800
O1665       O  0.54091939  0.79697137  0.40658382    -0.80500
C1666       C  0.61036082  0.98806312  0.36324553     0.94700
O1667       O  0.51416212  0.88876709  0.33110478    -0.78500
O1668       O  0.67885436  0.93732475  0.35019302    -0.83700
C1669       C  0.60022411  0.82054113  0.30353405     0.97400
C1670       C  0.68524074  0.90961453  0.36670431     1.03300
O1671       O  0.58052812  0.80457463  0.33304165    -0.79300
C1672       C  0.52482910  0.89076728  0.29865769     1.01600
Fe1673     Fe  0.64679960  0.61365808  0.13414696     1.65800
Fe1674     Fe  0.71046405  0.59467881  0.19122189     1.73200
Fe1675     Fe  0.75392489  0.65993985  0.11892127     1.54400
O1676       O  0.72397126  0.63776793  0.07234064    -0.83000
O1677       O  0.75573851  0.65349932  0.21428476    -0.81400
O1678       O  0.65273625  0.59777000  0.08259761    -0.85600
O1679       O  0.67783179  0.68090823  0.12607923    -0.80400
O1680       O  0.74826183  0.60027863  0.11656398    -0.82200
O1681       O  0.66145949  0.60006282  0.22112567    -0.84900
C1682       C  0.70739347  0.70299157  0.10325173     0.95800
C1683       C  0.68561885  0.61158795  0.06249770     1.03300
O1684       O  0.70364211  0.62550923  0.14960546    -1.13900
O1685       O  0.66703527  0.53404198  0.16723424    -0.76300
O1686       O  0.61594229  0.54622527  0.14396640    -0.79800
O1687       O  0.74676288  0.71381288  0.11015469    -0.80500
C1688       C  0.63275799  0.52188992  0.14835925     0.94700
O1689       O  0.63384889  0.62716392  0.18231629    -0.78500
O1690       O  0.76468322  0.59083576  0.16896164    -0.83700
C1691       C  0.78890890  0.68545810  0.19943255     0.97400
C1692       C  0.77189283  0.59314381  0.13568469     1.03300
O1693       O  0.79346093  0.68855255  0.16532530    -0.79300
C1694       C  0.63942456  0.61884425  0.21355420     1.01600
Fe1695     Fe  0.63890951  0.55521505  0.46061241     1.65800
Fe1696     Fe  0.70411265  0.62826108  0.40014820     1.73200
Fe1697     Fe  0.74671257  0.60330753  0.46977666     1.54400
O1698       O  0.71364961  0.59211744  0.01675035    -0.83000
O1699       O  0.74706486  0.61084886  0.37912081    -0.81400
O1700       O  0.65074222  0.59072636  0.00639157    -0.85600
O1701       O  0.66136044  0.51934035  0.48597773    -0.80400
O1702       O  0.76385555  0.66577101  0.47931562    -0.82200
O1703       O  0.65397142  0.56902927  0.37352301    -0.84900
C1704       C  0.69555006  0.51618701  0.48555168     0.95800
C1705       C  0.68208889  0.59695595  0.02662155     1.03300
O1706       O  0.69681246  0.59550302  0.44286063    -1.13900
O1707       O  0.66237422  0.64995303  0.41965379    -0.76300
O1708       O  0.60875086  0.58585649  0.43611329    -0.79800
O1709       O  0.72726929  0.53892242  0.46497914    -0.80500
C1710       C  0.62517961  0.62682657  0.43420988     0.94700
O1711       O  0.62849520  0.51925182  0.41748606    -0.78500
O1712       O  0.75733630  0.68627749  0.42465067    -0.83700
C1713       C  0.78114311  0.61312677  0.39236127     0.97400
C1714       C  0.77356102  0.69496838  0.45651609     1.03300
O1715       O  0.78861425  0.61742628  0.42564275    -0.79300
C1716       C  0.63290919  0.52883611  0.38482936     1.01600
Fe1717     Fe  0.54625418  0.64675185  0.21223630     1.65800
Fe1718     Fe  0.61930424  0.71293674  0.27209319     1.73200
Fe1719     Fe  0.59487189  0.75459726  0.20126777     1.54400
O1720       O  0.58459494  0.72105709  0.15429937    -0.83000
O1721       O  0.60107080  0.75562872  0.29221896    -0.81400
O1722       O  0.58025144  0.65681047  0.16580013    -0.85600
O1723       O  0.51050795  0.66888485  0.18612702    -0.80400
O1724       O  0.65757060  0.77199774  0.19236832    -0.82200
O1725       O  0.56065501  0.66291378  0.29923815    -0.84900
C1726       C  0.50772175  0.70325439  0.18565569     0.95800
C1727       C  0.58605321  0.68741778  0.14470841     1.03300
O1728       O  0.58695269  0.70496802  0.22894671    -1.13900
O1729       O  0.64130451  0.67117187  0.25368548    -0.76300
O1730       O  0.57743403  0.61716534  0.23721780    -0.79800
O1731       O  0.53050915  0.73526097  0.20569501    -0.80500
C1732       C  0.61847889  0.63383913  0.23945070     0.94700
O1733       O  0.51072819  0.63746680  0.25571204    -0.78500
O1734       O  0.67724617  0.76611277  0.24745987    -0.83700
C1735       C  0.60293460  0.78938192  0.27858113     0.97400
C1736       C  0.68635318  0.78217573  0.21550841     1.03300
O1737       O  0.60781701  0.79676419  0.24519703    -0.79300
C1738       C  0.52050144  0.64193417  0.28827862     1.01600
Fe1739     Fe  0.86235556  0.96283228  0.20985347     1.65800
Fe1740     Fe  0.79616508  0.88979743  0.14998872     1.73200
Fe1741     Fe  0.75450288  0.91421515  0.22081885     1.54400
O1742       O  0.78804285  0.92449390  0.26778676    -0.83000
O1743       O  0.75347324  0.90803698  0.12986912    -0.81400
O1744       O  0.85229156  0.92883418  0.25628910    -0.85600
O1745       O  0.84021882  0.99857755  0.23596070    -0.80400
O1746       O  0.73711153  0.85152195  0.22971550    -0.82200
O1747       O  0.84618991  0.94844729  0.12284716    -0.84900
C1748       C  0.80584761  0.50136086  0.23643056     0.95800
C1749       C  0.82168151  0.92303376  0.27737936     1.03300
O1750       O  0.80413633  0.92214040  0.19313899    -1.13900
O1751       O  0.83792861  0.86779051  0.16839099    -0.76300
O1752       O  0.89194015  0.93164895  0.18487439    -0.79800
O1753       O  0.77383670  0.97857300  0.21639216    -0.80500
C1754       C  0.87525928  0.89060575  0.18263465     0.94700
O1755       O  0.87165201  0.99836275  0.16637903    -0.78500
O1756       O  0.74298449  0.83185569  0.17461844    -0.83700
C1757       C  0.71971455  0.90616326  0.14350947     0.97400
C1758       C  0.72692582  0.82274439  0.20657148     1.03300
O1759       O  0.71232993  0.90126761  0.17689233    -0.79300
C1760       C  0.86717558  0.98859655  0.13381118     1.01600
Fe1761     Fe  0.59492557  0.64960305  0.03821377     1.65800
Fe1762     Fe  0.58648119  0.71944606  0.48152824     1.73200
Fe1763     Fe  0.65360956  0.75601241  0.05200956     1.54400
O1764       O  0.63214467  0.72252102  0.09873082    -0.83000
O1765       O  0.64642594  0.76263576  0.45815951    -0.81400
O1766       O  0.57382069  0.65768838  0.08692693    -0.85600
O1767       O  0.65528062  0.67008358  0.06062235    -0.80400
O1768       O  0.60029992  0.76169560  0.06017275    -0.82200
O1769       O  0.59024940  0.66886866  0.45227975    -0.84900
C1770       C  0.69130740  0.70474679  0.06742677     0.95800
C1771       C  0.59794958  0.68797527  0.10824058     1.03300
O1772       O  0.61424473  0.70839197  0.02226199    -1.13900
O1773       O  0.52423908  0.67932970  0.50451298    -0.76300
O1774       O  0.53145600  0.62302681  0.01878768    -0.79800
O1775       O  0.70244825  0.74079953  0.05170468    -0.80500
C1776       C  0.50939236  0.64229953  0.01958822     0.94700
O1777       O  0.61638617  0.64019757  0.49176919    -0.78500
O1778       O  0.58583515  0.77394129  0.50653807    -0.83700
C1779       C  0.67897922  0.79515082  0.47278112     0.97400
C1780       C  0.58979689  0.78233335  0.03989456     1.03300
O1781       O  0.68220187  0.79874185  0.50688093    -0.79300
C1782       C  0.60938200  0.64699209  0.46020170     1.01600
Fe1783     Fe  0.61693131  0.96591646  0.04315312     1.65800
Fe1784     Fe  0.59027891  0.88714857  0.10282741     1.73200
Fe1785     Fe  0.67120374  0.91001138  0.04191709     1.54400
O1786       O  0.63685459  0.89036090  0.49535663    -0.83000
O1787       O  0.64712163  0.88911856  0.12559448    -0.81400
O1788       O  0.61025489  0.93631579  0.49288392    -0.85600
O1789       O  0.68279188  0.99815549  0.04482589    -0.80400
O1790       O  0.63937719  0.84921237  0.06071986    -0.82200
O1791       O  0.60757766  0.94515296  0.13321205    -0.84900
C1792       C  0.70132942  0.49655341  0.01714417     0.95800
C1793       C  0.61704182  0.90705094  0.47921222     1.03300
O1794       O  0.62498079  0.92073091  0.06249700    -1.13900
O1795       O  0.52983775  0.87952528  0.08360439    -0.76300
O1796       O  0.55035516  0.93372869  0.04440123    -0.79800
O1797       O  0.71211458  0.96818325  0.01551483    -0.80500
C1798       C  0.52100442  0.89870653  0.05884987     0.94700
O1799       O  0.62029178  0.99491259  0.09098880    -0.78500
O1800       O  0.57176589  0.83023747  0.07190241    -0.83700
C1801       C  0.68855172  0.90887567  0.11856038     0.97400
C1802       C  0.59948202  0.82385783  0.05539112     1.03300
O1803       O  0.70451679  0.92857740  0.08905533    -0.79300
C1804       C  0.61829892  0.98424978  0.12343609     1.01600
Fe1805     Fe  0.88456128  0.55194484  0.29500466     1.65800
Fe1806     Fe  0.91067571  0.63234366  0.35266606     1.73200
Fe1807     Fe  0.83079868  0.60856822  0.29099302     1.54400
O1808       O  0.86543742  0.62610175  0.24473611    -0.83000
O1809       O  0.85384869  0.63103022  0.37445583    -0.81400
O1810       O  0.89247622  0.58044948  0.24383840    -0.85600
O1811       O  0.81872466  0.51942824  0.29572264    -0.80400
O1812       O  0.86303606  0.67069896  0.30723941    -0.82200
O1813       O  0.89296901  0.57548727  0.38454476    -0.84900
C1814       C  0.80046750  0.52125799  0.26799808     0.95800
C1815       C  0.88547363  0.60921000  0.22932891     1.03300
O1816       O  0.87634296  0.59778827  0.31280910    -1.13900
O1817       O  0.97108662  0.63940491  0.33426376    -0.76300
O1818       O  0.95106578  0.58383255  0.29684637    -0.79800
O1819       O  0.78957493  0.54956795  0.26626282    -0.80500
C1820       C  0.98011138  0.61952580  0.31033553     0.94700
O1821       O  0.87979915  0.52411665  0.34395804    -0.78500
O1822       O  0.92984201  0.68818371  0.32047250    -0.83700
C1823       C  0.81255572  0.61127215  0.36728616     0.97400
C1824       C  0.90338275  0.69522334  0.30280726     1.03300
O1825       O  0.79688606  0.59179621  0.33784840    -0.79300
C1826       C  0.88164186  0.53596310  0.37603105     1.01600
Fe1827     Fe  0.95386557  0.87015401  0.46147886     1.65800
Fe1828     Fe  0.88080575  0.80495475  0.02193536     1.73200
Fe1829     Fe  0.90576515  0.76235920  0.45230831     1.54400
O1830       O  0.91696182  0.79542566  0.40533580    -0.83000
O1831       O  0.89821646  0.76200477  0.04296514    -0.81400
O1832       O  0.91835616  0.85833039  0.41569802    -0.85600
O1833       O  0.98974008  0.84770390  0.43611336    -0.80400
O1834       O  0.84330002  0.74522416  0.44276544    -0.82200
O1835       O  0.94003604  0.85509541  0.04856376    -0.84900
C1836       C  0.99289395  0.81351648  0.43653851     0.95800
C1837       C  0.91212341  0.82698564  0.39546671     1.03300
O1838       O  0.91357074  0.81225464  0.47922608    -1.13900
O1839       O  0.85911867  0.84669310  0.00242591    -0.76300
O1840       O  0.92322629  0.90031253  0.48598078    -0.79800
O1841       O  0.97015345  0.78179602  0.45710720    -0.80500
C1842       C  0.88225434  0.88388928  0.98787765     0.94700
O1843       O  0.98982444  0.88055603  0.00460673    -0.78500
O1844       O  0.82278890  0.75173232  0.99743123    -0.83700
C1845       C  0.89593699  0.72792771  0.02972564     0.97400
C1846       C  0.81409975  0.73551077  0.46556504     1.03300
O1847       O  0.89163991  0.72045751  0.99644342    -0.79300
C1848       C  0.98023347  0.87615167  0.03726178     1.01600
Fe1849     Fe  0.95714147  0.62453964  0.62708304     1.65800
Fe1850     Fe  0.87672961  0.59840668  0.56942541     1.73200
Fe1851     Fe  0.90049493  0.67827662  0.63109824     1.54400
O1852       O  0.88296782  0.64363768  0.67735512    -0.83000
O1853       O  0.87803294  0.65522600  0.54763435    -0.81400
O1854       O  0.92863745  0.61661782  0.67825006    -0.85600
O1855       O  0.98964785  0.69037341  0.62636522    -0.80400
O1856       O  0.83836206  0.64603143  0.61485046    -0.82200
O1857       O  0.93358760  0.61612067  0.53754379    -0.84900
C1858       C  0.98781616  0.70862828  0.65409037     0.95800
C1859       C  0.89987070  0.62360895  0.69276091     1.03300
O1860       O  0.91128606  0.63274316  0.60928105    -1.13900
O1861       O  0.86968235  0.53800485  0.58782874    -0.76300
O1862       O  0.92526411  0.55803837  0.62524221    -0.79800
O1863       O  0.95949558  0.71950735  0.65582895    -0.80500
C1864       C  0.88957109  0.52898765  0.61175482     0.94700
O1865       O  0.98496893  0.62930916  0.57812840    -0.78500
O1866       O  0.82088697  0.57923203  0.60162143    -0.83700
C1867       C  0.89778884  0.69651657  0.55480302     0.97400
C1868       C  0.81384337  0.60568694  0.61928663     1.03300
O1869       O  0.91726203  0.71218709  0.58424251    -0.79300
C1870       C  0.97311749  0.62745950  0.54605615     1.01600
Fe1871     Fe  0.85948926  0.91415458  0.88387396     1.65800
Fe1872     Fe  0.78965173  0.92260788  0.94056461     1.73200
Fe1873     Fe  0.75307436  0.85549428  0.87007978     1.54400
O1874       O  0.78656651  0.87695318  0.82335841    -0.83000
O1875       O  0.74646301  0.86266533  0.96393183    -0.81400
O1876       O  0.85141128  0.93526189  0.83516059    -0.85600
O1877       O  0.83899418  0.85379801  0.86146631    -0.80400
O1878       O  0.74741938  0.90882044  0.86192664    -0.82200
O1879       O  0.84023094  0.91883791  0.96980924    -0.84900
C1880       C  0.80432434  0.81777768  0.85465958     0.95800
C1881       C  0.82112078  0.91113909  0.81384751     1.03300
O1882       O  0.80070080  0.89484468  0.89982836    -1.13900
O1883       O  0.82977114  0.98484592  0.91757961    -0.76300
O1884       O  0.88607275  0.97762401  0.90329642    -0.79800
O1885       O  0.76826905  0.80664501  0.87037796    -0.80500
C1886       C  0.86680005  0.99968874  0.90249948     0.94700
O1887       O  0.86889052  0.89269146  0.93031868    -0.78500
O1888       O  0.73515218  0.92325678  0.91556105    -0.83700
C1889       C  0.71394217  0.83011718  0.94930904     0.97400
C1890       C  0.72676861  0.91930839  0.88220355     1.03300
O1891       O  0.71034377  0.82690439  0.91521007    -0.79300
C1892       C  0.86209832  0.89969674  0.96188634     1.01600
Fe1893     Fe  0.89541687  0.86227180  0.78794008     1.65800
Fe1894     Fe  0.91439531  0.79860523  0.73087247     1.73200
Fe1895     Fe  0.84912536  0.75515178  0.80317178     1.54400
O1896       O  0.87129849  0.78510700  0.84975114    -0.83000
O1897       O  0.85557141  0.75333278  0.70780899    -0.81400
O1898       O  0.91130773  0.85633649  0.83948985    -0.85600
O1899       O  0.82816399  0.83124793  0.79600764    -0.80400
O1900       O  0.90878201  0.76079738  0.80553755    -0.82200
O1901       O  0.90901969  0.84761162  0.70096534    -0.84900
C1902       C  0.80607784  0.80168960  0.81883546     0.95800
C1903       C  0.89748656  0.82345731  0.85959146     1.03300
O1904       O  0.88356273  0.80543006  0.77248612    -1.13900
O1905       O  0.97503432  0.84202965  0.75486148    -0.76300
O1906       O  0.96285235  0.89312533  0.77811878    -0.79800
O1907       O  0.79525280  0.76232156  0.81193311    -0.80500
C1908       C  0.98718794  0.87630874  0.77373121     0.94700
O1909       O  0.88191044  0.87521930  0.73976950    -0.78500
O1910       O  0.91823307  0.74438750  0.75313667    -0.83700
C1911       C  0.82361250  0.72016452  0.72266021     0.97400
C1912       C  0.91592074  0.73717269  0.78641328     1.03300
O1913       O  0.82051388  0.71561480  0.75676910    -0.79300
C1914       C  0.89023940  0.86964882  0.70853336     1.01600
Fe1915     Fe  0.54316120  0.89213466  0.87894091     1.65800
Fe1916     Fe  0.62193860  0.91880384  0.81926833     1.73200
Fe1917     Fe  0.59909077  0.83788792  0.88017974     1.54400
O1918       O  0.61873735  0.87223959  0.92673948    -0.83000
O1919       O  0.61997631  0.86196845  0.79650019    -0.81400
O1920       O  0.57276316  0.89881791  0.92921041    -0.85600
O1921       O  0.51093333  0.82627688  0.87726795    -0.80400
O1922       O  0.65989155  0.86972087  0.86137487    -0.82200
O1923       O  0.56393090  0.90149894  0.78888268    -0.84900
C1924       C  0.51253564  0.80774442  0.90494784     0.95800
C1925       C  0.60203737  0.89204265  0.94288281     1.03300
O1926       O  0.58835797  0.88409936  0.85959848    -1.13900
O1927       O  0.62955022  0.97923650  0.83849279    -0.76300
O1928       O  0.57533907  0.95870793  0.87769318    -0.79800
O1929       O  0.54091944  0.79697132  0.90658394    -0.80500
C1930       C  0.61036114  0.98806330  0.86324534     0.94700
O1931       O  0.51416217  0.88876703  0.83110472    -0.78500
O1932       O  0.67885441  0.93732467  0.85019290    -0.83700
C1933       C  0.60022399  0.82054098  0.80353410     0.97400
C1934       C  0.68524074  0.90961454  0.86670439     1.03300
O1935       O  0.58052823  0.80457467  0.83304174    -0.79300
C1936       C  0.52482901  0.89076712  0.79865776     1.01600
Fe1937     Fe  0.64679949  0.61365799  0.63414704     1.65800
Fe1938     Fe  0.71046392  0.59467876  0.69122190     1.73200
Fe1939     Fe  0.75392473  0.65993993  0.61892132     1.54400
O1940       O  0.72397123  0.63776804  0.57234071    -0.83000
O1941       O  0.75573868  0.65349952  0.71428457    -0.81400
O1942       O  0.65273625  0.59777003  0.58259765    -0.85600
O1943       O  0.67783164  0.68090813  0.62607921    -0.80400
O1944       O  0.74826193  0.60027886  0.61656395    -0.82200
O1945       O  0.66145937  0.60006278  0.72112570    -0.84900
C1946       C  0.70739309  0.70299149  0.60325176     0.95800
C1947       C  0.68561838  0.61158781  0.56249783     1.03300
O1948       O  0.70364202  0.62550926  0.64960554    -1.13900
O1949       O  0.66703538  0.53404200  0.66723429    -0.76300
O1950       O  0.61594230  0.54622515  0.64396651    -0.79800
O1951       O  0.74676268  0.71381304  0.61015473    -0.80500
C1952       C  0.63275776  0.52188998  0.64835925     0.94700
O1953       O  0.63384879  0.62716391  0.68231634    -0.78500
O1954       O  0.76468315  0.59083579  0.66896165    -0.83700
C1955       C  0.78890792  0.68545742  0.69943358     0.97400
C1956       C  0.77189280  0.59314400  0.63568466     1.03300
O1957       O  0.79346082  0.68855271  0.66532501    -0.79300
C1958       C  0.63942442  0.61884424  0.71355413     1.01600
Fe1959     Fe  0.63890953  0.55521514  0.96061239     1.65800
Fe1960     Fe  0.70411266  0.62826108  0.90014827     1.73200
Fe1961     Fe  0.74671252  0.60330747  0.96977668     1.54400
O1962       O  0.71364964  0.59211755  0.51675042    -0.83000
O1963       O  0.74706468  0.61084886  0.87912076    -0.81400
O1964       O  0.65074222  0.59072633  0.50639148    -0.85600
O1965       O  0.66136039  0.51934029  0.98597771    -0.80400
O1966       O  0.76385551  0.66577105  0.97931559    -0.82200
O1967       O  0.65397137  0.56902926  0.87352304    -0.84900
C1968       C  0.69555011  0.51618697  0.98555162     0.95800
C1969       C  0.68208927  0.59695604  0.52662151     1.03300
O1970       O  0.69681249  0.59550313  0.94286072    -1.13900
O1971       O  0.66237430  0.64995309  0.91965374    -0.76300
O1972       O  0.60875089  0.58585662  0.93611324    -0.79800
O1973       O  0.72726922  0.53892240  0.96497907    -0.80500
C1974       C  0.62517973  0.62682677  0.93420977     0.94700
O1975       O  0.62849498  0.51925182  0.91748604    -0.78500
O1976       O  0.75733630  0.68627753  0.92465064    -0.83700
C1977       C  0.78114343  0.61312687  0.89236164     0.97400
C1978       C  0.77356103  0.69496820  0.95651659     1.03300
O1979       O  0.78861411  0.61742618  0.92564263    -0.79300
C1980       C  0.63290923  0.52883647  0.88482912     1.01600
Fe1981     Fe  0.54625414  0.64675179  0.71223628     1.65800
Fe1982     Fe  0.61930418  0.71293668  0.77209316     1.73200
Fe1983     Fe  0.59487188  0.75459723  0.70126783     1.54400
O1984       O  0.58459503  0.72105709  0.65429945    -0.83000
O1985       O  0.60107085  0.75562870  0.79221901    -0.81400
O1986       O  0.58025132  0.65681032  0.66580006    -0.85600
O1987       O  0.51050787  0.66888487  0.68612694    -0.80400
O1988       O  0.65757064  0.77199775  0.69236836    -0.82200
O1989       O  0.56065484  0.66291365  0.79923811    -0.84900
C1990       C  0.50772165  0.70325419  0.68565567     0.95800
C1991       C  0.58605321  0.68741788  0.64470839     1.03300
O1992       O  0.58695262  0.70496795  0.72894669    -1.13900
O1993       O  0.64130437  0.67117174  0.75368552    -0.76300
O1994       O  0.57743394  0.61716526  0.73721772    -0.79800
O1995       O  0.53050912  0.73526095  0.70569505    -0.80500
C1996       C  0.61847881  0.63383910  0.73945072     0.94700
O1997       O  0.51072813  0.63746682  0.75571194    -0.78500
O1998       O  0.67724625  0.76611273  0.74745989    -0.83700
C1999       C  0.60293449  0.78938185  0.77858112     0.97400
C2000       C  0.68635319  0.78217571  0.71550833     1.03300
O2001       O  0.60781698  0.79676414  0.74519710    -0.79300
C2002       C  0.52050172  0.64193437  0.78827907     1.01600
Fe2003     Fe  0.86235551  0.96283221  0.70985342     1.65800
Fe2004     Fe  0.79616493  0.88979730  0.64998868     1.73200
Fe2005     Fe  0.75450283  0.91421509  0.72081885     1.54400
O2006       O  0.78804283  0.92449380  0.76778662    -0.83000
O2007       O  0.75347322  0.90803700  0.62986918    -0.81400
O2008       O  0.85229152  0.92883408  0.75628911    -0.85600
O2009       O  0.84021894  0.99857749  0.73596059    -0.80400
O2010       O  0.73711156  0.85152190  0.72971551    -0.82200
O2011       O  0.84618972  0.94844727  0.62284714    -0.84900
C2012       C  0.80584788  0.50136083  0.73643080     0.95800
C2013       C  0.82168174  0.92303376  0.77737933     1.03300
O2014       O  0.80413623  0.92214041  0.69313889    -1.13900
O2015       O  0.83792846  0.86779048  0.66839102    -0.76300
O2016       O  0.89194021  0.93164893  0.68487427    -0.79800
O2017       O  0.77383675  0.97857298  0.71639225    -0.80500
C2018       C  0.87525913  0.89060561  0.68263453     0.94700
O2019       O  0.87165198  0.99836275  0.66637903    -0.78500
O2020       O  0.74298427  0.83185556  0.67461840    -0.83700
C2021       C  0.71971441  0.90616309  0.64350956     0.97400
C2022       C  0.72692574  0.82274435  0.70657159     1.03300
O2023       O  0.71232988  0.90126757  0.67689239    -0.79300
C2024       C  0.86717552  0.98859643  0.63381102     1.01600
Fe2025     Fe  0.59492549  0.64960303  0.53821381     1.65800
Fe2026     Fe  0.58648131  0.71944612  0.98152832     1.73200
Fe2027     Fe  0.65360941  0.75601243  0.55200950     1.54400
O2028       O  0.63214455  0.72252104  0.59873074    -0.83000
O2029       O  0.64642584  0.76263564  0.95815943    -0.81400
O2030       O  0.57382059  0.65768832  0.58692699    -0.85600
O2031       O  0.65528053  0.67008354  0.56062242    -0.80400
O2032       O  0.60029978  0.76169559  0.56017269    -0.82200
O2033       O  0.59024942  0.66886870  0.95227986    -0.84900
C2034       C  0.69130744  0.70474695  0.56742673     0.95800
C2035       C  0.59794934  0.68797515  0.60824055     1.03300
O2036       O  0.61424457  0.70839194  0.52226198    -1.13900
O2037       O  0.52423920  0.67932983  0.00451298    -0.76300
O2038       O  0.53145599  0.62302671  0.51878766    -0.79800
O2039       O  0.70244807  0.74079954  0.55170468    -0.80500
C2040       C  0.50939217  0.64229982  0.51958809     0.94700
O2041       O  0.61638630  0.64019757  0.99176914    -0.78500
O2042       O  0.58583517  0.77394122  0.00653815    -0.83700
C2043       C  0.67897970  0.79515135  0.97278186     0.97400
C2044       C  0.58979685  0.78233336  0.53989461     1.03300
O2045       O  0.68220191  0.79874178  0.00688077    -0.79300
C2046       C  0.60938216  0.64699223  0.96020176     1.01600
Fe2047     Fe  0.61693123  0.96591645  0.54315319     1.65800
Fe2048     Fe  0.59027885  0.88714853  0.60282738     1.73200
Fe2049     Fe  0.67120382  0.91001155  0.54191711     1.54400
O2050       O  0.63685450  0.89036055  0.99535662    -0.83000
O2051       O  0.64712149  0.88911861  0.62559448    -0.81400
O2052       O  0.61025515  0.93631575  0.99288378    -0.85600
O2053       O  0.68279180  0.99815543  0.54482592    -0.80400
O2054       O  0.63937726  0.84921243  0.56071978    -0.82200
O2055       O  0.60757746  0.94515287  0.63321212    -0.84900
C2056       C  0.70132965  0.49655358  0.51714417     0.95800
C2057       C  0.61704167  0.90705111  0.97921218     1.03300
O2058       O  0.62498083  0.92073098  0.56249703    -1.13900
O2059       O  0.52983765  0.87952513  0.58360445    -0.76300
O2060       O  0.55035500  0.93372864  0.54440139    -0.79800
O2061       O  0.71211478  0.96818352  0.51551489    -0.80500
C2062       C  0.52100431  0.89870657  0.55884992     0.94700
O2063       O  0.62029166  0.99491249  0.59098883    -0.78500
O2064       O  0.57176594  0.83023755  0.57190242    -0.83700
C2065       C  0.68855160  0.90887570  0.61856041     0.97400
C2066       C  0.59948195  0.82385780  0.55539113     1.03300
O2067       O  0.70451669  0.92857746  0.58905544    -0.79300
C2068       C  0.61829889  0.98424958  0.62343625     1.01600
Fe2069     Fe  0.88456114  0.55194494  0.79500465     1.65800
Fe2070     Fe  0.91067565  0.63234368  0.85266607     1.73200
Fe2071     Fe  0.83079853  0.60856830  0.79099299     1.54400
O2072       O  0.86543734  0.62610179  0.74473603    -0.83000
O2073       O  0.85384878  0.63103021  0.87445588    -0.81400
O2074       O  0.89247604  0.58044944  0.74383832    -0.85600
O2075       O  0.81872458  0.51942826  0.79572261    -0.80400
O2076       O  0.86303597  0.67069906  0.80723933    -0.82200
O2077       O  0.89296891  0.57548729  0.88454474    -0.84900
C2078       C  0.80046718  0.52125821  0.76799780     0.95800
C2079       C  0.88547359  0.60920994  0.72932888     1.03300
O2080       O  0.87634282  0.59778835  0.81280914    -1.13900
O2081       O  0.97108653  0.63940497  0.83426379    -0.76300
O2082       O  0.95106570  0.58383270  0.79684637    -0.79800
O2083       O  0.78957483  0.54956800  0.76626270    -0.80500
C2084       C  0.98011100  0.61952538  0.81033528     0.94700
O2085       O  0.87979904  0.52411667  0.84395803    -0.78500
O2086       O  0.92984193  0.68818371  0.82047258    -0.83700
C2087       C  0.81255522  0.61127190  0.86728583     0.97400
C2088       C  0.90338265  0.69522336  0.80280734     1.03300
O2089       O  0.79688605  0.59179642  0.83784845    -0.79300
C2090       C  0.88164176  0.53596296  0.87603099     1.01600
Fe2091     Fe  0.95386556  0.87015403  0.96147878     1.65800
Fe2092     Fe  0.88080564  0.80495472  0.52193532     1.73200
Fe2093     Fe  0.90576511  0.76235926  0.95230821     1.54400
O2094       O  0.91696178  0.79542573  0.90533563    -0.83000
O2095       O  0.89821633  0.76200478  0.54296517    -0.81400
O2096       O  0.91835608  0.85833042  0.91569799    -0.85600
O2097       O  0.98974001  0.84770372  0.93611335    -0.80400
O2098       O  0.84329994  0.74522435  0.94276548    -0.82200
O2099       O  0.94003604  0.85509546  0.54856371    -0.84900
C2100       C  0.99289397  0.81351689  0.93653836     0.95800
C2101       C  0.91212329  0.82698526  0.89546648     1.03300
O2102       O  0.91357069  0.81225470  0.97922602    -1.13900
O2103       O  0.85911855  0.84669305  0.50242577    -0.76300
O2104       O  0.92322630  0.90031262  0.98598066    -0.79800
O2105       O  0.97015314  0.78179578  0.95710718    -0.80500
C2106       C  0.88225415  0.88388910  0.48787766     0.94700
O2107       O  0.98982450  0.88055592  0.50460675    -0.78500
O2108       O  0.82278877  0.75173220  0.49743109    -0.83700
C2109       C  0.89593711  0.72792784  0.52972589     0.97400
C2110       C  0.81409999  0.73551082  0.96556465     1.03300
O2111       O  0.89164011  0.72045762  0.49644343    -0.79300
C2112       C  0.98023326  0.87615150  0.53726201     1.01600
loop_ 
_geom_bond_atom_site_label_1 
_geom_bond_atom_site_label_2 
_geom_bond_distance 
_geom_bond_site_symmetry_2 
_ccdc_geom_bond_type 
Fe1          O17   2.052       .  S
Fe1           O7   2.012       .  S
Fe1          O14   2.034       .  S
Fe1           O6   2.122       .  S
Fe1          O12   1.907       .  S
Fe2           O5   2.147       .  S
Fe2           O9   2.143       .  S
Fe2          O13   2.136       .  S
Fe2          O18   2.113       .  S
Fe2          O12   1.932       .  S
Fe3          O21   2.042       .  S
Fe3           O8   1.996       .  S
Fe3          O15   2.072       .  S
Fe3           O4   2.034       .  S
Fe3          O12   2.008       .  S
O4           C11   1.273       .  A
O5           C19   1.291       .  A
O6           C11   1.283       .  A
O7           C10   1.246       .  A
O8           C20   1.252       .  A
O9           C22   1.286       .  A
C10          O15   1.242       .  A
C10        C1198   1.441       .  S
C11         C231   1.464       .  S
O13          C16   1.278       .  A
O14          C16   1.267       .  A
C16         C704   1.487   1_545  S
O17          C22   1.269       .  A
O18          C20   1.271       .  A
C19          O21   1.276       .  A
C19         C261   1.482       .  S
C20         C108   1.453       .  S
C22        C1248   1.493       .  S
Fe23         O39   1.997       .  S
Fe23         O29   2.060       .  S
Fe23         O36   2.083       .  S
Fe23         O28   2.051       .  S
Fe23         O34   1.927       .  S
Fe24         O27   2.080       .  S
Fe24         O31   2.162       .  S
Fe24         O35   2.109       .  S
Fe24         O40   2.156       .  S
Fe24         O34   1.963       .  S
Fe25         O43   2.152       .  S
Fe25         O30   2.017       .  S
Fe25         O37   2.051       .  S
Fe25         O26   2.037       .  S
Fe25         O34   1.918       .  S
O26          C33   1.262       .  A
O27          C41   1.273       .  A
O28          C33   1.266       .  A
O29          C32   1.273       .  A
O30          C42   1.234       .  A
O31          C44   1.293       .  A
C32          O37   1.273       .  A
C32          C54   1.477       .  S
C33         C165   1.431       .  S
O35          C38   1.271       .  A
O36          C38   1.269       .  A
C38         C770   1.493       .  S
O39          C44   1.260       .  A
O40          C42   1.281       .  A
C41          O43   1.289       .  A
C41         C195   1.513       .  S
C42          C86   1.453       .  S
C44         C522   1.476       .  S
Fe45         O61   1.985       .  S
Fe45         O51   2.079       .  S
Fe45         O58   2.095       .  S
Fe45         O50   2.059       .  S
Fe45         O56   1.926       .  S
Fe46         O49   2.074       .  S
Fe46         O53   2.152       .  S
Fe46         O57   2.114       .  S
Fe46         O62   2.157       .  S
Fe46         O56   1.989       .  S
Fe47         O65   2.148       .  S
Fe47         O52   2.018       .  S
Fe47         O59   2.070       .  S
Fe47         O48   1.995       .  S
Fe47         O56   1.945       .  S
O48          C55   1.254       .  A
O49          C63   1.275       .  A
O50          C55   1.259       .  A
O51          C54   1.270       .  A
O52          C64   1.222       .  A
O53          C66   1.285       .  A
C54          O59   1.272       .  A
C55         C253   1.429       .  S
O57          C60   1.280       .  A
O58          C60   1.279       .  A
C60        C1144   1.494       .  S
O61          C66   1.251       .  A
O62          C64   1.271       .  A
C63          O65   1.290       .  A
C63         C107   1.506       .  S
C64         C240   1.453       .  S
C66         C170   1.474       .  S
Fe67         O83   2.046       .  S
Fe67         O73   2.014       .  S
Fe67         O80   2.035       .  S
Fe67         O72   2.118       .  S
Fe67         O78   1.902       .  S
Fe68         O71   2.155       .  S
Fe68         O75   2.153       .  S
Fe68         O79   2.142       .  S
Fe68         O84   2.125       .  S
Fe68         O78   1.933       .  S
Fe69         O87   2.048       .  S
Fe69         O74   1.986       .  S
Fe69         O81   2.074       .  S
Fe69         O70   2.046       .  S
Fe69         O78   2.008       .  S
O70          C77   1.274       .  A
O71          C85   1.293       .  A
O72          C77   1.282       .  A
O73          C76   1.246       .  A
O74          C86   1.250       .  A
O75          C88   1.289       .  A
C76          O81   1.241       .  A
C76        C1308   1.441   1_455  S
C77         C209   1.467       .  S
O79          C82   1.279       .  A
O80          C82   1.268       .  A
C82         C660   1.491       .  S
O83          C88   1.268       .  A
O84          C86   1.272       .  A
C85          O87   1.279       .  A
C85         C151   1.488       .  S
C88        C1116   1.494   1_455  S
Fe89        O105   1.985       .  S
Fe89         O95   2.079       .  S
Fe89        O102   2.095       .  S
Fe89         O94   2.059       .  S
Fe89        O100   1.926       .  S
Fe90         O93   2.074       .  S
Fe90         O97   2.152       .  S
Fe90        O101   2.114       .  S
Fe90        O106   2.157       .  S
Fe90        O100   1.989       .  S
Fe91        O109   2.148       .  S
Fe91         O96   2.018       .  S
Fe91        O103   2.070       .  S
Fe91         O92   1.995       .  S
Fe91        O100   1.945       .  S
O92          C99   1.254       .  A
O93         C107   1.275       .  A
O94          C99   1.259       .  A
O95          C98   1.270       .  A
O96         C108   1.222       .  A
O97         C110   1.285       .  A
C98         O103   1.272       .  A
C98         C186   1.477       .  S
C99         C121   1.429       .  S
O101        C104   1.280       .  A
O102        C104   1.279       .  A
C104        C748   1.494   1_545  S
O105        C110   1.251       .  A
O106        C108   1.271       .  A
C107        O109   1.290       .  A
C110        C148   1.474       .  S
Fe111       O127   1.980       .  S
Fe111       O117   2.040       .  S
Fe111       O124   2.079       .  S
Fe111       O380   2.049       .  S
Fe111       O122   1.929       .  S
Fe112       O115   2.061       .  S
Fe112       O119   2.193       .  S
Fe112       O123   2.108       .  S
Fe112       O128   2.174       .  S
Fe112       O122   1.918       .  S
Fe113       O131   2.108       .  S
Fe113       O118   2.008       .  S
Fe113       O125   2.029       .  S
Fe113       O378   2.042       .  S
Fe113       O122   1.932       .  S
O114       Fe377   2.042   1_554  S
O114        C121   1.266       .  A
O115        C129   1.269       .  A
O116       Fe375   2.049   1_554  S
O116        C121   1.270       .  A
O117        C120   1.269       .  A
O118        C130   1.248       .  A
O119        C132   1.299       .  A
C120        O125   1.261       .  A
C120        C472   1.441   1_545  S
O123        C126   1.269       .  A
O124        C126   1.262       .  A
C126        C198   1.476       .  S
O127        C132   1.262       .  A
O128        C130   1.299       .  A
C129        O131   1.273       .  A
C129        C239   1.482       .  S
C130        C262   1.470       .  S
C132        C610   1.491   1_545  S
Fe133       O149   1.984       .  S
Fe133       O139   2.042       .  S
Fe133       O146   2.087       .  S
Fe133       O138   2.045       .  S
Fe133       O144   1.931       .  S
Fe134       O137   2.061       .  S
Fe134       O141   2.183       .  S
Fe134       O145   2.103       .  S
Fe134       O150   2.168       .  S
Fe134       O144   1.925       .  S
Fe135       O153   2.118       .  S
Fe135       O140   2.007       .  S
Fe135       O147   2.026       .  S
Fe135       O136   2.058       .  S
Fe135       O144   1.934       .  S
O136        C143   1.269       .  A
O137        C151   1.269       .  A
O138        C143   1.271       .  A
O139        C142   1.268       .  A
O140        C152   1.248       .  A
O141        C154   1.296       .  A
C142        O147   1.259       .  A
C142       C1066   1.441   1_455  S
C143        C187   1.431       .  S
O145        C148   1.270       .  A
O146        C148   1.265       .  A
O149        C154   1.262       .  A
O150        C152   1.297       .  A
C151        O153   1.276       .  A
C152        C174   1.468       .  S
C154       C1292   1.487   1_455  S
Fe155       O171   1.984       .  S
Fe155       O161   2.043       .  S
Fe155       O168   2.087       .  S
Fe155       O160   2.045       .  S
Fe155       O166   1.931       .  S
Fe156       O159   2.061       .  S
Fe156       O163   2.183       .  S
Fe156       O167   2.103       .  S
Fe156       O172   2.168       .  S
Fe156       O166   1.925       .  S
Fe157       O175   2.118       .  S
Fe157       O162   2.007       .  S
Fe157       O169   2.026       .  S
Fe157       O158   2.058       .  S
Fe157       O166   1.934       .  S
O158        C165   1.269       .  A
O159        C173   1.269       .  A
O160        C165   1.271       .  A
O161        C692   1.268       .  A
O162        C174   1.248       .  A
O163        C176   1.296       .  A
C164        O689   1.268   1_545  A
C164        O697   1.259   1_545  A
C164        C230   1.441       .  S
O167        C170   1.270       .  A
O168        C170   1.265       .  A
O169        C692   1.259       .  A
O171        C176   1.262       .  A
O172        C174   1.297       .  A
C173        O175   1.276       .  A
C173        C217   1.488       .  S
C176        C544   1.487       .  S
Fe177       O183   2.060       .  S
Fe177       O190   2.083       .  S
Fe177       O182   2.051       .  S
Fe177       O457   1.997   1_554  S
Fe177       O188   1.927       .  S
Fe178       O181   2.080       .  S
Fe178       O185   2.162       .  S
Fe178       O189   2.109       .  S
Fe178       O194   2.156       .  S
Fe178       O452   1.963       .  S
Fe179       O184   2.017       .  S
Fe179       O191   2.051       .  S
Fe179       O180   2.037       .  S
Fe179       O461   2.152       .  S
Fe179       O188   1.918       .  S
O180        C187   1.262       .  A
O181        C195   1.273       .  A
O182        C187   1.266       .  A
O183        C186   1.273       .  A
O184        C196   1.234       .  A
O185        C198   1.293       .  A
C186        O191   1.273       .  A
O188       Fe442   1.963   1_554  S
O189        C456   1.271       .  A
O190        C192   1.268       .  A
C192        O453   1.271       .  A
C192       C1078   1.492   1_455  S
O193       Fe441   1.997       .  S
O193        C198   1.260       .  A
O194        C460   1.281       .  A
C195        O197   1.289       .  A
C196        O458   1.281       .  A
C196        C218   1.453       .  S
O197       Fe443   2.152       .  S
Fe199       O215   2.046       .  S
Fe199       O205   2.014       .  S
Fe199       O212   2.035       .  S
Fe199       O468   2.118   1_554  S
Fe199       O210   1.902       .  S
Fe200       O203   2.155       .  S
Fe200       O207   2.153       .  S
Fe200       O211   2.142       .  S
Fe200       O216   2.125       .  S
Fe200       O210   1.933       .  S
Fe201       O219   2.048       .  S
Fe201       O206   1.986       .  S
Fe201       O213   2.074       .  S
Fe201       O466   2.046   1_554  S
Fe201       O210   2.008       .  S
O202       Fe465   2.046       .  S
O202        C209   1.274       .  A
O203        C217   1.293       .  A
O204       Fe463   2.118       .  S
O204        C209   1.282       .  A
O205        C736   1.246       .  A
O206        C218   1.250       .  A
O207        C220   1.289       .  A
C208        O733   1.246       .  A
C208        O741   1.241       .  A
C208        C384   1.441   1_564  S
O211        C214   1.279       .  A
O212        C214   1.268       .  A
O213        C736   1.241       .  A
C214       C1320   1.491   1_455  S
O215        C220   1.268       .  A
O216        C218   1.272       .  A
C217        O219   1.279       .  A
C220        C632   1.494       .  S
Fe221       O237   2.052       .  S
Fe221       O227   2.012       .  S
Fe221       O234   2.034       .  S
Fe221       O226   2.122       .  S
Fe221       O232   1.907       .  S
Fe222       O225   2.147       .  S
Fe222       O229   2.143       .  S
Fe222       O233   2.136       .  S
Fe222       O238   2.113       .  S
Fe222       O232   1.932       .  S
Fe223       O241   2.042       .  S
Fe223       O228   1.996       .  S
Fe223       O235   2.072       .  S
Fe223       O224   2.034       .  S
Fe223       O232   2.008       .  S
O224        C231   1.273       .  A
O225        C239   1.291       .  A
O226        C231   1.283       .  A
O227        C230   1.246       .  A
O228        C240   1.252       .  A
O229        C242   1.286       .  A
C230        O235   1.242       .  A
O233        C236   1.278       .  A
O234        C236   1.267       .  A
C236       C1210   1.487       .  S
O237        C242   1.269       .  A
O238        C240   1.271       .  A
C239        O241   1.276       .  A
C242        C566   1.493   1_545  S
Fe243       O249   2.040       .  S
Fe243       O256   2.079       .  S
Fe243       O248   2.049       .  S
Fe243       O523   1.980       .  S
Fe243       O254   1.929       .  S
Fe244       O247   2.061       .  S
Fe244       O251   2.193       .  S
Fe244       O255   2.108       .  S
Fe244       O260   2.174   1_554  S
Fe244       O518   1.918   1_554  S
Fe245       O250   2.008       .  S
Fe245       O257   2.029       .  S
Fe245       O246   2.042       .  S
Fe245       O527   2.108       .  S
Fe245       O254   1.932       .  S
O246        C253   1.266       .  A
O247        C261   1.269       .  A
O248        C253   1.270       .  A
O249        C252   1.269       .  A
O250        C262   1.248       .  A
O251        C264   1.299       .  A
C252        O257   1.261       .  A
C252       C1132   1.441       .  S
O254       Fe508   1.918       .  S
O255        C258   1.269   1_554  A
O256        C522   1.262       .  A
C258        O520   1.262       .  A
C258        C308   1.476       .  S
O259       Fe507   1.980   1_554  S
O259        C264   1.262       .  A
O260        C526   1.299       .  A
C261        O263   1.273   1_554  A
C262        O524   1.299       .  A
O263       Fe509   2.108       .  S
C264       C1270   1.491       .  S
Fe265       O281   2.052       .  S
Fe265       O271   2.012       .  S
Fe265       O278   2.034       .  S
Fe265       O270   2.122       .  S
Fe265       O276   1.907       .  S
Fe266       O269   2.147       .  S
Fe266       O273   2.143       .  S
Fe266       O277   2.136       .  S
Fe266       O282   2.113       .  S
Fe266       O276   1.932       .  S
Fe267       O285   2.042       .  S
Fe267       O272   1.996       .  S
Fe267       O279   2.072       .  S
Fe267       O268   2.034       .  S
Fe267       O276   2.008       .  S
O268        C275   1.273       .  A
O269        C283   1.291       .  A
O270        C275   1.283       .  A
O271        C274   1.246       .  A
O272        C284   1.252       .  A
O273        C286   1.286       .  A
C274        O279   1.242       .  A
C274       C1462   1.441       .  S
C275        C495   1.464       .  S
O277        C280   1.278       .  A
O278        C280   1.267       .  A
C280        C968   1.487   1_545  S
O281        C286   1.269       .  A
O282        C284   1.271       .  A
C283        O285   1.276       .  A
C283        C525   1.482       .  S
C284        C372   1.453       .  S
C286       C1512   1.492       .  S
Fe287       O303   1.997       .  S
Fe287       O293   2.060       .  S
Fe287       O300   2.083       .  S
Fe287       O292   2.051       .  S
Fe287       O298   1.927       .  S
Fe288       O291   2.080       .  S
Fe288       O295   2.162       .  S
Fe288       O299   2.109       .  S
Fe288       O304   2.156       .  S
Fe288       O298   1.963       .  S
Fe289       O307   2.152       .  S
Fe289       O294   2.017       .  S
Fe289       O301   2.051       .  S
Fe289       O290   2.037       .  S
Fe289       O298   1.918       .  S
O290        C297   1.262       .  A
O291        C305   1.273       .  A
O292        C297   1.266       .  A
O293        C296   1.273       .  A
O294        C306   1.234       .  A
O295        C308   1.293       .  A
C296        O301   1.273       .  A
C296        C318   1.477       .  S
C297        C429   1.431       .  S
O299        C302   1.271       .  A
O300        C302   1.269       .  A
C302       C1034   1.493       .  S
O303        C308   1.260       .  A
O304        C306   1.281       .  A
C305        O307   1.289       .  A
C305        C459   1.513       .  S
C306        C350   1.453       .  S
Fe309       O325   1.985       .  S
Fe309       O315   2.079       .  S
Fe309       O322   2.095       .  S
Fe309       O314   2.059       .  S
Fe309       O320   1.926       .  S
Fe310       O313   2.074       .  S
Fe310       O317   2.152       .  S
Fe310       O321   2.114       .  S
Fe310       O326   2.157       .  S
Fe310       O320   1.989       .  S
Fe311       O329   2.148       .  S
Fe311       O316   2.018       .  S
Fe311       O323   2.070       .  S
Fe311       O312   1.995       .  S
Fe311       O320   1.945       .  S
O312        C319   1.254       .  A
O313        C327   1.275       .  A
O314        C319   1.259       .  A
O315        C318   1.270       .  A
O316        C328   1.222       .  A
O317        C330   1.285       .  A
C318        O323   1.272       .  A
C319        C517   1.429       .  S
O321        C324   1.280       .  A
O322        C324   1.279       .  A
C324       C1408   1.494       .  S
O325        C330   1.251       .  A
O326        C328   1.271       .  A
C327        O329   1.290       .  A
C327        C371   1.506       .  S
C328        C504   1.453       .  S
C330        C434   1.474       .  S
Fe331       O347   2.046       .  S
Fe331       O337   2.014       .  S
Fe331       O344   2.035       .  S
Fe331       O336   2.118       .  S
Fe331       O342   1.902       .  S
Fe332       O335   2.155       .  S
Fe332       O339   2.153       .  S
Fe332       O343   2.142       .  S
Fe332       O348   2.125       .  S
Fe332       O342   1.933       .  S
Fe333       O351   2.048       .  S
Fe333       O338   1.986       .  S
Fe333       O345   2.074       .  S
Fe333       O334   2.046       .  S
Fe333       O342   2.008       .  S
O334        C341   1.274       .  A
O335        C349   1.293       .  A
O336        C341   1.282       .  A
O337        C340   1.246       .  A
O338        C350   1.250       .  A
O339        C352   1.289       .  A
C340        O345   1.241       .  A
C340       C1572   1.441   1_455  S
C341        C473   1.467       .  S
O343        C346   1.279       .  A
O344        C346   1.268       .  A
C346        C924   1.491       .  S
O347        C352   1.268       .  A
O348        C350   1.272       .  A
C349        O351   1.279       .  A
C349        C415   1.488       .  S
C352       C1380   1.494   1_455  S
Fe353       O369   1.985       .  S
Fe353       O359   2.079       .  S
Fe353       O366   2.095       .  S
Fe353       O358   2.059       .  S
Fe353       O364   1.926       .  S
Fe354       O357   2.074       .  S
Fe354       O361   2.152       .  S
Fe354       O365   2.114       .  S
Fe354       O370   2.157       .  S
Fe354       O364   1.989       .  S
Fe355       O373   2.148       .  S
Fe355       O360   2.018       .  S
Fe355       O367   2.070       .  S
Fe355       O356   1.995       .  S
Fe355       O364   1.945       .  S
O356        C363   1.254       .  A
O357        C371   1.275       .  A
O358        C363   1.259       .  A
O359        C362   1.270       .  A
O360        C372   1.222       .  A
O361        C374   1.285       .  A
C362        O367   1.272       .  A
C362        C450   1.477       .  S
C363        C385   1.429       .  S
O365        C368   1.280       .  A
O366        C368   1.279       .  A
C368       C1012   1.494   1_545  S
O369        C374   1.251       .  A
O370        C372   1.271       .  A
C371        O373   1.290       .  A
C374        C412   1.474       .  S
Fe375       O391   1.980       .  S
Fe375       O381   2.040       .  S
Fe375       O388   2.079       .  S
Fe375       O386   1.929       .  S
Fe376       O379   2.061       .  S
Fe376       O383   2.193       .  S
Fe376       O387   2.108       .  S
Fe376       O392   2.174       .  S
Fe376       O386   1.918       .  S
Fe377       O395   2.108       .  S
Fe377       O382   2.008       .  S
Fe377       O389   2.029       .  S
Fe377       O386   1.932       .  S
O378        C385   1.266       .  A
O379        C393   1.269       .  A
O380        C385   1.270       .  A
O381        C384   1.269       .  A
O382        C394   1.248       .  A
O383        C396   1.299       .  A
C384        O389   1.261       .  A
O387        C390   1.269       .  A
O388        C390   1.262       .  A
C390        C462   1.476       .  S
O391        C396   1.262       .  A
O392        C394   1.299       .  A
C393        O395   1.273       .  A
C393        C503   1.482       .  S
C394        C526   1.470       .  S
C396        C874   1.491   1_545  S
Fe397       O413   1.984       .  S
Fe397       O403   2.042       .  S
Fe397       O410   2.087       .  S
Fe397       O402   2.045       .  S
Fe397       O408   1.931       .  S
Fe398       O401   2.061       .  S
Fe398       O405   2.183       .  S
Fe398       O409   2.103       .  S
Fe398       O414   2.168       .  S
Fe398       O408   1.925       .  S
Fe399       O417   2.118       .  S
Fe399       O404   2.007       .  S
Fe399       O411   2.026       .  S
Fe399       O400   2.058       .  S
Fe399       O408   1.934       .  S
O400        C407   1.269       .  A
O401        C415   1.269       .  A
O402        C407   1.271       .  A
O403        C406   1.268       .  A
O404        C416   1.248       .  A
O405        C418   1.296       .  A
C406        O411   1.259       .  A
C406       C1330   1.441   1_455  S
C407        C451   1.431       .  S
O409        C412   1.270       .  A
O410        C412   1.265       .  A
O413        C418   1.262       .  A
O414        C416   1.297       .  A
C415        O417   1.276       .  A
C416        C438   1.468       .  S
C418       C1556   1.487   1_455  S
Fe419       O435   1.984       .  S
Fe419       O425   2.043       .  S
Fe419       O432   2.087       .  S
Fe419       O424   2.045       .  S
Fe419       O430   1.931       .  S
Fe420       O423   2.061       .  S
Fe420       O427   2.183       .  S
Fe420       O431   2.103       .  S
Fe420       O436   2.168       .  S
Fe420       O430   1.925       .  S
Fe421       O439   2.118       .  S
Fe421       O426   2.007       .  S
Fe421       O433   2.026       .  S
Fe421       O422   2.058       .  S
Fe421       O430   1.934       .  S
O422        C429   1.269       .  A
O423        C437   1.269       .  A
O424        C429   1.271       .  A
O425        C956   1.268       .  A
O426        C438   1.248       .  A
O427        C440   1.296       .  A
C428        O953   1.268   1_545  A
C428        O961   1.259   1_545  A
C428        C494   1.441       .  S
O431        C434   1.270       .  A
O432        C434   1.265       .  A
O433        C956   1.259       .  A
O435        C440   1.262       .  A
O436        C438   1.297       .  A
C437        O439   1.276       .  A
C437        C481   1.488       .  S
C440        C808   1.487       .  S
Fe441       O447   2.060       .  S
Fe441       O454   2.083       .  S
Fe441       O446   2.051       .  S
Fe441       O452   1.927       .  S
Fe442       O445   2.080       .  S
Fe442       O449   2.162       .  S
Fe442       O453   2.109   1_556  S
Fe442       O458   2.156   1_556  S
Fe443       O448   2.017       .  S
Fe443       O455   2.051       .  S
Fe443       O444   2.037       .  S
Fe443       O452   1.918       .  S
O444        C451   1.262       .  A
O445        C459   1.273       .  A
O446        C451   1.266       .  A
O447        C450   1.273       .  A
O448        C460   1.234       .  A
O449        C462   1.293       .  A
C450        O455   1.273       .  A
O454        C456   1.268       .  A
C456       C1342   1.492   1_455  S
O457        C462   1.260       .  A
C459        O461   1.289   1_556  A
C460        C482   1.453       .  S
Fe463       O479   2.046       .  S
Fe463       O469   2.014       .  S
Fe463       O476   2.035       .  S
Fe463       O474   1.902       .  S
Fe464       O467   2.155       .  S
Fe464       O471   2.153       .  S
Fe464       O475   2.142       .  S
Fe464       O480   2.125       .  S
Fe464       O474   1.933       .  S
Fe465       O483   2.048       .  S
Fe465       O470   1.986       .  S
Fe465       O477   2.074       .  S
Fe465       O474   2.008       .  S
O466        C473   1.274       .  A
O467        C481   1.293       .  A
O468        C473   1.282       .  A
O469       C1000   1.246       .  A
O470        C482   1.250       .  A
O471        C484   1.289       .  A
C472        O997   1.246       .  A
C472       O1005   1.241       .  A
O475        C478   1.279       .  A
O476        C478   1.268       .  A
O477       C1000   1.241       .  A
C478       C1584   1.491   1_455  S
O479        C484   1.268       .  A
O480        C482   1.272       .  A
C481        O483   1.279       .  A
C484        C896   1.494       .  S
Fe485       O501   2.052       .  S
Fe485       O491   2.012       .  S
Fe485       O498   2.034       .  S
Fe485       O490   2.122       .  S
Fe485       O496   1.907       .  S
Fe486       O489   2.147       .  S
Fe486       O493   2.143       .  S
Fe486       O497   2.136       .  S
Fe486       O502   2.113       .  S
Fe486       O496   1.932       .  S
Fe487       O505   2.042       .  S
Fe487       O492   1.996       .  S
Fe487       O499   2.072       .  S
Fe487       O488   2.034       .  S
Fe487       O496   2.008       .  S
O488        C495   1.273       .  A
O489        C503   1.291       .  A
O490        C495   1.283       .  A
O491        C494   1.246       .  A
O492        C504   1.252       .  A
O493        C506   1.286       .  A
C494        O499   1.242       .  A
O497        C500   1.278       .  A
O498        C500   1.267       .  A
C500       C1474   1.487       .  S
O501        C506   1.269       .  A
O502        C504   1.271       .  A
C503        O505   1.276       .  A
C506        C830   1.493   1_545  S
Fe507       O513   2.040       .  S
Fe507       O520   2.079       .  S
Fe507       O512   2.049       .  S
Fe507       O518   1.929       .  S
Fe508       O511   2.061       .  S
Fe508       O515   2.193       .  S
Fe508       O519   2.108       .  S
Fe508       O524   2.174       .  S
Fe509       O514   2.008       .  S
Fe509       O521   2.029       .  S
Fe509       O510   2.042       .  S
Fe509       O518   1.932       .  S
O510        C517   1.266       .  A
O511        C525   1.269       .  A
O512        C517   1.270       .  A
O513        C516   1.269       .  A
O514        C526   1.248       .  A
O515        C528   1.299       .  A
C516        O521   1.261       .  A
C516       C1396   1.441       .  S
O519        C522   1.269       .  A
O523        C528   1.262       .  A
C525        O527   1.273       .  A
C528       C1534   1.491       .  S
Fe529       O545   2.052       .  S
Fe529       O535   2.012       .  S
Fe529       O542   2.034       .  S
Fe529       O534   2.122       .  S
Fe529       O540   1.907       .  S
Fe530       O533   2.147       .  S
Fe530       O537   2.143       .  S
Fe530       O541   2.136       .  S
Fe530       O546   2.113       .  S
Fe530       O540   1.932       .  S
Fe531       O549   2.042       .  S
Fe531       O536   1.996       .  S
Fe531       O543   2.072       .  S
Fe531       O532   2.034       .  S
Fe531       O540   2.008       .  S
O532        C539   1.273       .  A
O533        C547   1.291       .  A
O534        C539   1.283       .  A
O535        C538   1.246       .  A
O536        C548   1.252       .  A
O537        C550   1.286       .  A
C538        O543   1.242       .  A
C538       C1726   1.441       .  S
C539        C759   1.464       .  S
O541        C544   1.278       .  A
O542        C544   1.267       .  A
O545        C550   1.269       .  A
O546        C548   1.271       .  A
C547        O549   1.276       .  A
C547        C789   1.482       .  S
C548        C636   1.453       .  S
C550       C1776   1.492       .  S
Fe551       O567   1.997       .  S
Fe551       O557   2.060       .  S
Fe551       O564   2.083       .  S
Fe551       O556   2.051       .  S
Fe551       O562   1.927       .  S
Fe552       O555   2.080       .  S
Fe552       O559   2.162       .  S
Fe552       O563   2.109       .  S
Fe552       O568   2.156       .  S
Fe552       O562   1.963       .  S
Fe553       O571   2.152       .  S
Fe553       O558   2.017       .  S
Fe553       O565   2.051       .  S
Fe553       O554   2.037       .  S
Fe553       O562   1.918       .  S
O554        C561   1.262       .  A
O555        C569   1.273       .  A
O556        C561   1.266       .  A
O557        C560   1.273       .  A
O558        C570   1.234       .  A
O559        C572   1.293       .  A
C560        O565   1.273       .  A
C560        C582   1.477       .  S
C561        C693   1.431       .  S
O563        C566   1.271       .  A
O564        C566   1.269       .  A
O567        C572   1.260       .  A
O568        C570   1.281       .  A
C569        O571   1.289       .  A
C569        C723   1.513       .  S
C570        C614   1.453       .  S
C572       C1050   1.476       .  S
Fe573       O589   1.985       .  S
Fe573       O579   2.079       .  S
Fe573       O586   2.095       .  S
Fe573       O578   2.059       .  S
Fe573       O584   1.926       .  S
Fe574       O577   2.074       .  S
Fe574       O581   2.152       .  S
Fe574       O585   2.114       .  S
Fe574       O590   2.157       .  S
Fe574       O584   1.989       .  S
Fe575       O593   2.148       .  S
Fe575       O580   2.018       .  S
Fe575       O587   2.070       .  S
Fe575       O576   1.995       .  S
Fe575       O584   1.945       .  S
O576        C583   1.254       .  A
O577        C591   1.275       .  A
O578        C583   1.259       .  A
O579        C582   1.270       .  A
O580        C592   1.222       .  A
O581        C594   1.285       .  A
C582        O587   1.272       .  A
C583        C781   1.429       .  S
O585        C588   1.280       .  A
O586        C588   1.279       .  A
C588       C1672   1.494       .  S
O589        C594   1.251       .  A
O590        C592   1.271       .  A
C591        O593   1.290       .  A
C591        C635   1.506       .  S
C592        C768   1.453       .  S
C594        C698   1.474       .  S
Fe595       O611   2.046       .  S
Fe595       O601   2.014       .  S
Fe595       O608   2.035       .  S
Fe595       O600   2.118       .  S
Fe595       O606   1.902       .  S
Fe596       O599   2.155       .  S
Fe596       O603   2.153       .  S
Fe596       O607   2.142       .  S
Fe596       O612   2.125       .  S
Fe596       O606   1.933       .  S
Fe597       O615   2.048       .  S
Fe597       O602   1.986       .  S
Fe597       O609   2.074       .  S
Fe597       O598   2.046       .  S
Fe597       O606   2.008       .  S
O598        C605   1.274       .  A
O599        C613   1.293       .  A
O600        C605   1.282       .  A
O601        C604   1.246       .  A
O602        C614   1.250       .  A
O603        C616   1.289       .  A
C604        O609   1.241       .  A
C604       C1836   1.441   1_455  S
C605        C737   1.467       .  S
O607        C610   1.279       .  A
O608        C610   1.268       .  A
O611        C616   1.268       .  A
O612        C614   1.272       .  A
C613        O615   1.279       .  A
C613        C679   1.488       .  S
C616       C1644   1.494   1_455  S
Fe617       O633   1.985       .  S
Fe617       O623   2.079       .  S
Fe617       O630   2.095       .  S
Fe617       O622   2.059       .  S
Fe617       O628   1.926       .  S
Fe618       O621   2.074       .  S
Fe618       O625   2.152       .  S
Fe618       O629   2.114       .  S
Fe618       O634   2.157       .  S
Fe618       O628   1.989       .  S
Fe619       O637   2.148       .  S
Fe619       O624   2.018       .  S
Fe619       O631   2.070       .  S
Fe619       O620   1.995       .  S
Fe619       O628   1.945       .  S
O620        C627   1.254       .  A
O621        C635   1.275       .  A
O622        C627   1.259       .  A
O623        C626   1.270       .  A
O624        C636   1.222       .  A
O625        C638   1.285       .  A
C626        O631   1.272       .  A
C626        C714   1.477       .  S
C627        C649   1.429       .  S
O629        C632   1.280       .  A
O630        C632   1.279       .  A
O633        C638   1.251       .  A
O634        C636   1.271       .  A
C635        O637   1.290       .  A
C638        C676   1.474       .  S
Fe639       O655   1.980       .  S
Fe639       O645   2.040       .  S
Fe639       O652   2.079       .  S
Fe639       O908   2.049       .  S
Fe639       O650   1.929       .  S
Fe640       O643   2.061       .  S
Fe640       O647   2.193       .  S
Fe640       O651   2.108       .  S
Fe640       O656   2.174       .  S
Fe640       O650   1.918       .  S
Fe641       O659   2.108       .  S
Fe641       O646   2.008       .  S
Fe641       O653   2.029       .  S
Fe641       O906   2.042       .  S
Fe641       O650   1.932       .  S
O642       Fe905   2.042   1_554  S
O642        C649   1.266       .  A
O643        C657   1.269       .  A
O644       Fe903   2.049   1_554  S
O644        C649   1.270       .  A
O645        C648   1.269       .  A
O646        C658   1.248       .  A
O647        C660   1.299       .  A
C648        O653   1.261       .  A
C648       C1000   1.441       .  S
O651        C654   1.269       .  A
O652        C654   1.262       .  A
C654        C726   1.476       .  S
O655        C660   1.262       .  A
O656        C658   1.299       .  A
C657        O659   1.273       .  A
C657        C767   1.482       .  S
C658        C790   1.470       .  S
Fe661       O677   1.984       .  S
Fe661       O667   2.042       .  S
Fe661       O674   2.087       .  S
Fe661       O666   2.045       .  S
Fe661       O672   1.931       .  S
Fe662       O665   2.061       .  S
Fe662       O669   2.183       .  S
Fe662       O673   2.103       .  S
Fe662       O678   2.168       .  S
Fe662       O672   1.925       .  S
Fe663       O681   2.118       .  S
Fe663       O668   2.007       .  S
Fe663       O675   2.026       .  S
Fe663       O664   2.058       .  S
Fe663       O672   1.934       .  S
O664        C671   1.269       .  A
O665        C679   1.269       .  A
O666        C671   1.271       .  A
O667        C670   1.268       .  A
O668        C680   1.248       .  A
O669        C682   1.296       .  A
C670        O675   1.259       .  A
C670       C1594   1.441   1_455  S
C671        C715   1.431       .  S
O673        C676   1.270       .  A
O674        C676   1.265       .  A
O677        C682   1.262       .  A
O678        C680   1.297       .  A
C679        O681   1.276       .  A
C680        C702   1.468       .  S
C682       C1820   1.487   1_455  S
Fe683       O699   1.984       .  S
Fe683       O689   2.043       .  S
Fe683       O696   2.087       .  S
Fe683       O688   2.045       .  S
Fe683       O694   1.931       .  S
Fe684       O687   2.061       .  S
Fe684       O691   2.183       .  S
Fe684       O695   2.103       .  S
Fe684       O700   2.168       .  S
Fe684       O694   1.925       .  S
Fe685       O703   2.118       .  S
Fe685       O690   2.007       .  S
Fe685       O697   2.026       .  S
Fe685       O686   2.058       .  S
Fe685       O694   1.934       .  S
O686        C693   1.269       .  A
O687        C701   1.269       .  A
O688        C693   1.271       .  A
O690        C702   1.248       .  A
O691        C704   1.296       .  A
C692        C758   1.441       .  S
O695        C698   1.270       .  A
O696        C698   1.265       .  A
O699        C704   1.262       .  A
O700        C702   1.297       .  A
C701        O703   1.276       .  A
C701        C745   1.488       .  S
Fe705       O985   1.997   1_554  S
Fe705       O711   2.060       .  S
Fe705       O718   2.083       .  S
Fe705       O710   2.051       .  S
Fe705       O716   1.927       .  S
Fe706       O709   2.080       .  S
Fe706       O713   2.162       .  S
Fe706       O717   2.109       .  S
Fe706       O722   2.156       .  S
Fe706       O980   1.963       .  S
Fe707       O989   2.152       .  S
Fe707       O712   2.017       .  S
Fe707       O719   2.051       .  S
Fe707       O708   2.037       .  S
Fe707       O716   1.918       .  S
O708        C715   1.262       .  A
O709        C723   1.273       .  A
O710        C715   1.266       .  A
O711        C714   1.273       .  A
O712        C724   1.234       .  A
O713        C726   1.293       .  A
C714        O719   1.273       .  A
O716       Fe970   1.963   1_554  S
O717        C984   1.271       .  A
O718        C720   1.268       .  A
C720        O981   1.271       .  A
C720       C1606   1.492   1_455  S
O721       Fe969   1.997       .  S
O721        C726   1.260       .  A
O722        C988   1.281       .  A
C723        O725   1.289       .  A
C724        O986   1.281       .  A
C724        C746   1.453       .  S
O725       Fe971   2.152       .  S
Fe727       O743   2.046       .  S
Fe727       O733   2.014       .  S
Fe727       O740   2.035       .  S
Fe727       O996   2.118   1_554  S
Fe727       O738   1.902       .  S
Fe728       O731   2.155       .  S
Fe728       O735   2.153       .  S
Fe728       O739   2.142       .  S
Fe728       O744   2.125       .  S
Fe728       O738   1.933       .  S
Fe729       O747   2.048       .  S
Fe729       O734   1.986       .  S
Fe729       O741   2.074       .  S
Fe729       O994   2.046   1_554  S
Fe729       O738   2.008       .  S
O730       Fe993   2.046       .  S
O730        C737   1.274       .  A
O731        C745   1.293       .  A
O732       Fe991   2.118       .  S
O732        C737   1.282       .  A
O734        C746   1.250       .  A
O735        C748   1.289       .  A
C736        C912   1.441   1_554  S
O739        C742   1.279       .  A
O740        C742   1.268       .  A
C742       C1848   1.491   1_455  S
O743        C748   1.268       .  A
O744        C746   1.272       .  A
C745        O747   1.279       .  A
Fe749       O765   2.052       .  S
Fe749       O755   2.012       .  S
Fe749       O762   2.034       .  S
Fe749       O754   2.122       .  S
Fe749       O760   1.907       .  S
Fe750       O753   2.147       .  S
Fe750       O757   2.143       .  S
Fe750       O761   2.136       .  S
Fe750       O766   2.113       .  S
Fe750       O760   1.932       .  S
Fe751       O769   2.042       .  S
Fe751       O756   1.996       .  S
Fe751       O763   2.072       .  S
Fe751       O752   2.034       .  S
Fe751       O760   2.008       .  S
O752        C759   1.273       .  A
O753        C767   1.291       .  A
O754        C759   1.283       .  A
O755        C758   1.246       .  A
O756        C768   1.252       .  A
O757        C770   1.286       .  A
C758        O763   1.242       .  A
O761        C764   1.278       .  A
O762        C764   1.267       .  A
C764       C1738   1.487       .  S
O765        C770   1.269       .  A
O766        C768   1.271       .  A
C767        O769   1.276       .  A
Fe771      O1051   1.980       .  S
Fe771       O777   2.040       .  S
Fe771       O784   2.079       .  S
Fe771       O776   2.049       .  S
Fe771       O782   1.929       .  S
Fe772       O775   2.061       .  S
Fe772       O779   2.193       .  S
Fe772       O783   2.108       .  S
Fe772       O788   2.174   1_554  S
Fe772      O1046   1.918   1_554  S
Fe773      O1055   2.108       .  S
Fe773       O778   2.008       .  S
Fe773       O785   2.029       .  S
Fe773       O774   2.042       .  S
Fe773       O782   1.932       .  S
O774        C781   1.266       .  A
O775        C789   1.269       .  A
O776        C781   1.270       .  A
O777        C780   1.269       .  A
O778        C790   1.248       .  A
O779        C792   1.299       .  A
C780        O785   1.261       .  A
C780       C1660   1.441       .  S
O782      Fe1036   1.918       .  S
O783        C786   1.269   1_554  A
O784       C1050   1.262       .  A
C786       O1048   1.262       .  A
C786        C836   1.476       .  S
O787      Fe1035   1.980   1_554  S
O787        C792   1.262       .  A
O788       C1054   1.299       .  A
C789        O791   1.273   1_554  A
C790       O1052   1.299       .  A
O791      Fe1037   2.108       .  S
C792       C1798   1.491       .  S
Fe793       O809   2.052       .  S
Fe793       O799   2.012       .  S
Fe793       O806   2.034       .  S
Fe793       O798   2.122       .  S
Fe793       O804   1.907       .  S
Fe794       O797   2.147       .  S
Fe794       O801   2.143       .  S
Fe794       O805   2.136       .  S
Fe794       O810   2.113       .  S
Fe794       O804   1.932       .  S
Fe795       O813   2.042       .  S
Fe795       O800   1.996       .  S
Fe795       O807   2.072       .  S
Fe795       O796   2.034       .  S
Fe795       O804   2.008       .  S
O796        C803   1.273       .  A
O797        C811   1.291       .  A
O798        C803   1.283       .  A
O799        C802   1.246       .  A
O800        C812   1.252       .  A
O801        C814   1.286       .  A
C802        O807   1.242       .  A
C802       C1990   1.441       .  S
C803       C1023   1.464       .  S
O805        C808   1.278       .  A
O806        C808   1.267       .  A
O809        C814   1.269       .  A
O810        C812   1.271       .  A
C811        O813   1.276       .  A
C811       C1053   1.482       .  S
C812        C900   1.453       .  S
C814       C2040   1.492       .  S
Fe815       O831   1.997       .  S
Fe815       O821   2.060       .  S
Fe815       O828   2.083       .  S
Fe815       O820   2.051       .  S
Fe815       O826   1.927       .  S
Fe816       O819   2.080       .  S
Fe816       O823   2.162       .  S
Fe816       O827   2.109       .  S
Fe816       O832   2.156       .  S
Fe816       O826   1.963       .  S
Fe817       O835   2.152       .  S
Fe817       O822   2.017       .  S
Fe817       O829   2.051       .  S
Fe817       O818   2.037       .  S
Fe817       O826   1.918       .  S
O818        C825   1.262       .  A
O819        C833   1.273       .  A
O820        C825   1.266       .  A
O821        C824   1.273       .  A
O822        C834   1.234       .  A
O823        C836   1.293       .  A
C824        O829   1.273       .  A
C824        C846   1.477       .  S
C825        C957   1.431       .  S
O827        C830   1.271       .  A
O828        C830   1.269       .  A
O831        C836   1.260       .  A
O832        C834   1.281       .  A
C833        O835   1.289       .  A
C833        C987   1.513       .  S
C834        C878   1.453       .  S
Fe837       O853   1.985       .  S
Fe837       O843   2.079       .  S
Fe837       O850   2.095       .  S
Fe837       O842   2.059       .  S
Fe837       O848   1.926       .  S
Fe838       O841   2.074       .  S
Fe838       O845   2.152       .  S
Fe838       O849   2.114       .  S
Fe838       O854   2.157       .  S
Fe838       O848   1.989       .  S
Fe839       O857   2.148       .  S
Fe839       O844   2.018       .  S
Fe839       O851   2.070       .  S
Fe839       O840   1.995       .  S
Fe839       O848   1.945       .  S
O840        C847   1.254       .  A
O841        C855   1.275       .  A
O842        C847   1.259       .  A
O843        C846   1.270       .  A
O844        C856   1.222       .  A
O845        C858   1.285       .  A
C846        O851   1.272       .  A
C847       C1045   1.429       .  S
O849        C852   1.280       .  A
O850        C852   1.279       .  A
C852       C1936   1.494       .  S
O853        C858   1.251       .  A
O854        C856   1.271       .  A
C855        O857   1.290       .  A
C855        C899   1.506       .  S
C856       C1032   1.453       .  S
C858        C962   1.474       .  S
Fe859       O875   2.046       .  S
Fe859       O865   2.014       .  S
Fe859       O872   2.035       .  S
Fe859       O864   2.118       .  S
Fe859       O870   1.902       .  S
Fe860       O863   2.155       .  S
Fe860       O867   2.153       .  S
Fe860       O871   2.142       .  S
Fe860       O876   2.125       .  S
Fe860       O870   1.933       .  S
Fe861       O879   2.048       .  S
Fe861       O866   1.986       .  S
Fe861       O873   2.074       .  S
Fe861       O862   2.046       .  S
Fe861       O870   2.008       .  S
O862        C869   1.274       .  A
O863        C877   1.293       .  A
O864        C869   1.282       .  A
O865        C868   1.246       .  A
O866        C878   1.250       .  A
O867        C880   1.289       .  A
C868        O873   1.241       .  A
C868       C2100   1.441   1_455  S
C869       C1001   1.467       .  S
O871        C874   1.279       .  A
O872        C874   1.268       .  A
O875        C880   1.268       .  A
O876        C878   1.272       .  A
C877        O879   1.279       .  A
C877        C943   1.488       .  S
C880       C1908   1.494   1_455  S
Fe881       O897   1.985       .  S
Fe881       O887   2.079       .  S
Fe881       O894   2.095       .  S
Fe881       O886   2.059       .  S
Fe881       O892   1.926       .  S
Fe882       O885   2.074       .  S
Fe882       O889   2.152       .  S
Fe882       O893   2.114       .  S
Fe882       O898   2.157       .  S
Fe882       O892   1.989       .  S
Fe883       O901   2.148       .  S
Fe883       O888   2.018       .  S
Fe883       O895   2.070       .  S
Fe883       O884   1.995       .  S
Fe883       O892   1.945       .  S
O884        C891   1.254       .  A
O885        C899   1.275       .  A
O886        C891   1.259       .  A
O887        C890   1.270       .  A
O888        C900   1.222       .  A
O889        C902   1.285       .  A
C890        O895   1.272       .  A
C890        C978   1.477       .  S
C891        C913   1.429       .  S
O893        C896   1.280       .  A
O894        C896   1.279       .  A
O897        C902   1.251       .  A
O898        C900   1.271       .  A
C899        O901   1.290       .  A
C902        C940   1.474       .  S
Fe903       O919   1.980       .  S
Fe903       O909   2.040       .  S
Fe903       O916   2.079       .  S
Fe903       O914   1.929       .  S
Fe904       O907   2.061       .  S
Fe904       O911   2.193       .  S
Fe904       O915   2.108       .  S
Fe904       O920   2.174       .  S
Fe904       O914   1.918       .  S
Fe905       O923   2.108       .  S
Fe905       O910   2.008       .  S
Fe905       O917   2.029       .  S
Fe905       O914   1.932       .  S
O906        C913   1.266       .  A
O907        C921   1.269       .  A
O908        C913   1.270       .  A
O909        C912   1.269       .  A
O910        C922   1.248       .  A
O911        C924   1.299       .  A
C912        O917   1.261       .  A
O915        C918   1.269       .  A
O916        C918   1.262       .  A
C918        C990   1.476       .  S
O919        C924   1.262       .  A
O920        C922   1.299       .  A
C921        O923   1.273       .  A
C921       C1031   1.482       .  S
C922       C1054   1.470       .  S
Fe925       O941   1.984       .  S
Fe925       O931   2.042       .  S
Fe925       O938   2.087       .  S
Fe925       O930   2.045       .  S
Fe925       O936   1.931       .  S
Fe926       O929   2.061       .  S
Fe926       O933   2.183       .  S
Fe926       O937   2.103       .  S
Fe926       O942   2.168       .  S
Fe926       O936   1.925       .  S
Fe927       O945   2.118       .  S
Fe927       O932   2.007       .  S
Fe927       O939   2.026       .  S
Fe927       O928   2.058       .  S
Fe927       O936   1.934       .  S
O928        C935   1.269       .  A
O929        C943   1.269       .  A
O930        C935   1.271       .  A
O931        C934   1.268       .  A
O932        C944   1.248       .  A
O933        C946   1.296       .  A
C934        O939   1.259       .  A
C934       C1858   1.441   1_455  S
C935        C979   1.431       .  S
O937        C940   1.270       .  A
O938        C940   1.265       .  A
O941        C946   1.262       .  A
O942        C944   1.297       .  A
C943        O945   1.276       .  A
C944        C966   1.468       .  S
C946       C2084   1.487   1_455  S
Fe947       O963   1.984       .  S
Fe947       O953   2.043       .  S
Fe947       O960   2.087       .  S
Fe947       O952   2.045       .  S
Fe947       O958   1.931       .  S
Fe948       O951   2.061       .  S
Fe948       O955   2.183       .  S
Fe948       O959   2.103       .  S
Fe948       O964   2.168       .  S
Fe948       O958   1.925       .  S
Fe949       O967   2.118       .  S
Fe949       O954   2.007       .  S
Fe949       O961   2.026       .  S
Fe949       O950   2.058       .  S
Fe949       O958   1.934       .  S
O950        C957   1.269       .  A
O951        C965   1.269       .  A
O952        C957   1.271       .  A
O954        C966   1.248       .  A
O955        C968   1.296       .  A
C956       C1022   1.441       .  S
O959        C962   1.270       .  A
O960        C962   1.265       .  A
O963        C968   1.262       .  A
O964        C966   1.297       .  A
C965        O967   1.276       .  A
C965       C1009   1.488       .  S
Fe969       O975   2.060       .  S
Fe969       O982   2.083       .  S
Fe969       O974   2.051       .  S
Fe969       O980   1.927       .  S
Fe970       O973   2.080       .  S
Fe970       O977   2.162       .  S
Fe970       O981   2.109   1_556  S
Fe970       O986   2.156   1_556  S
Fe971       O976   2.017       .  S
Fe971       O983   2.051       .  S
Fe971       O972   2.037       .  S
Fe971       O980   1.918       .  S
O972        C979   1.262       .  A
O973        C987   1.273       .  A
O974        C979   1.266       .  A
O975        C978   1.273       .  A
O976        C988   1.234       .  A
O977        C990   1.293       .  A
C978        O983   1.273       .  A
O982        C984   1.268       .  A
C984       C1870   1.492   1_455  S
O985        C990   1.260       .  A
C987        O989   1.289   1_556  A
C988       C1010   1.453       .  S
Fe991      O1007   2.046       .  S
Fe991       O997   2.014       .  S
Fe991      O1004   2.035       .  S
Fe991      O1002   1.902       .  S
Fe992       O995   2.155       .  S
Fe992       O999   2.153       .  S
Fe992      O1003   2.142       .  S
Fe992      O1008   2.125       .  S
Fe992      O1002   1.933       .  S
Fe993      O1011   2.048       .  S
Fe993       O998   1.986       .  S
Fe993      O1005   2.074       .  S
Fe993      O1002   2.008       .  S
O994       C1001   1.274       .  A
O995       C1009   1.293       .  A
O996       C1001   1.282       .  A
O998       C1010   1.250       .  A
O999       C1012   1.289       .  A
O1003      C1006   1.279       .  A
O1004      C1006   1.268       .  A
C1006      C2112   1.491   1_455  S
O1007      C1012   1.268       .  A
O1008      C1010   1.272       .  A
C1009      O1011   1.279       .  A
Fe1013     O1029   2.052       .  S
Fe1013     O1019   2.012       .  S
Fe1013     O1026   2.034       .  S
Fe1013     O1018   2.122       .  S
Fe1013     O1024   1.907       .  S
Fe1014     O1017   2.147       .  S
Fe1014     O1021   2.143       .  S
Fe1014     O1025   2.136       .  S
Fe1014     O1030   2.113       .  S
Fe1014     O1024   1.932       .  S
Fe1015     O1033   2.042       .  S
Fe1015     O1020   1.996       .  S
Fe1015     O1027   2.072       .  S
Fe1015     O1016   2.034       .  S
Fe1015     O1024   2.008       .  S
O1016      C1023   1.273       .  A
O1017      C1031   1.291       .  A
O1018      C1023   1.283       .  A
O1019      C1022   1.246       .  A
O1020      C1032   1.252       .  A
O1021      C1034   1.286       .  A
C1022      O1027   1.242       .  A
O1025      C1028   1.278       .  A
O1026      C1028   1.267       .  A
C1028      C2002   1.487       .  S
O1029      C1034   1.269       .  A
O1030      C1032   1.271       .  A
C1031      O1033   1.276       .  A
Fe1035     O1041   2.040       .  S
Fe1035     O1048   2.079       .  S
Fe1035     O1040   2.049       .  S
Fe1035     O1046   1.929       .  S
Fe1036     O1039   2.061       .  S
Fe1036     O1043   2.193       .  S
Fe1036     O1047   2.108       .  S
Fe1036     O1052   2.174       .  S
Fe1037     O1042   2.008       .  S
Fe1037     O1049   2.029       .  S
Fe1037     O1038   2.042       .  S
Fe1037     O1046   1.932       .  S
O1038      C1045   1.266       .  A
O1039      C1053   1.269       .  A
O1040      C1045   1.270       .  A
O1041      C1044   1.269       .  A
O1042      C1054   1.248       .  A
O1043      C1056   1.299       .  A
C1044      O1049   1.261       .  A
C1044      C1924   1.441       .  S
O1047      C1050   1.269       .  A
O1051      C1056   1.262       .  A
C1053      O1055   1.273       .  A
C1056      C2062   1.491       .  S
Fe1057     O1073   2.052       .  S
Fe1057     O1063   2.012       .  S
Fe1057     O1070   2.034       .  S
Fe1057     O1062   2.122       .  S
Fe1057     O1068   1.907       .  S
Fe1058     O1061   2.147       .  S
Fe1058     O1065   2.143       .  S
Fe1058     O1069   2.136       .  S
Fe1058     O1074   2.113       .  S
Fe1058     O1068   1.932       .  S
Fe1059     O1077   2.042       .  S
Fe1059     O1064   1.996       .  S
Fe1059     O1071   2.072       .  S
Fe1059     O1060   2.034       .  S
Fe1059     O1068   2.008       .  S
O1060      C1067   1.273       .  A
O1061      C1075   1.291       .  A
O1062      C1067   1.283       .  A
O1063      C1066   1.246       .  A
O1064      C1076   1.252       .  A
O1065      C1078   1.286       .  A
C1066      O1071   1.242       .  A
C1067      C1287   1.464       .  S
O1069      C1072   1.278       .  A
O1070      C1072   1.267       .  A
C1072      C1760   1.487   1_545  S
O1073      C1078   1.269       .  A
O1074      C1076   1.271       .  A
C1075      O1077   1.276       .  A
C1075      C1317   1.482       .  S
C1076      C1164   1.453       .  S
Fe1079     O1095   1.997       .  S
Fe1079     O1085   2.060       .  S
Fe1079     O1092   2.083       .  S
Fe1079     O1084   2.051       .  S
Fe1079     O1090   1.927       .  S
Fe1080     O1083   2.080       .  S
Fe1080     O1087   2.162       .  S
Fe1080     O1091   2.109       .  S
Fe1080     O1096   2.156       .  S
Fe1080     O1090   1.963       .  S
Fe1081     O1099   2.152       .  S
Fe1081     O1086   2.017       .  S
Fe1081     O1093   2.051       .  S
Fe1081     O1082   2.037       .  S
Fe1081     O1090   1.918       .  S
O1082      C1089   1.262       .  A
O1083      C1097   1.273       .  A
O1084      C1089   1.266       .  A
O1085      C1088   1.273       .  A
O1086      C1098   1.234       .  A
O1087      C1100   1.293       .  A
C1088      O1093   1.273       .  A
C1088      C1110   1.477       .  S
C1089      C1221   1.431       .  S
O1091      C1094   1.271       .  A
O1092      C1094   1.269       .  A
C1094      C1826   1.493       .  S
O1095      C1100   1.260       .  A
O1096      C1098   1.281       .  A
C1097      O1099   1.289       .  A
C1097      C1251   1.513       .  S
C1098      C1142   1.453       .  S
C1100      C1578   1.476       .  S
Fe1101     O1117   1.985       .  S
Fe1101     O1107   2.079       .  S
Fe1101     O1114   2.095       .  S
Fe1101     O1106   2.059       .  S
Fe1101     O1112   1.926       .  S
Fe1102     O1105   2.074       .  S
Fe1102     O1109   2.152       .  S
Fe1102     O1113   2.114       .  S
Fe1102     O1118   2.157       .  S
Fe1102     O1112   1.989       .  S
Fe1103     O1121   2.148       .  S
Fe1103     O1108   2.018       .  S
Fe1103     O1115   2.070       .  S
Fe1103     O1104   1.995       .  S
Fe1103     O1112   1.945       .  S
O1104      C1111   1.254       .  A
O1105      C1119   1.275       .  A
O1106      C1111   1.259       .  A
O1107      C1110   1.270       .  A
O1108      C1120   1.222       .  A
O1109      C1122   1.285       .  A
C1110      O1115   1.272       .  A
C1111      C1309   1.429       .  S
O1113      C1116   1.280       .  A
O1114      C1116   1.279       .  A
O1117      C1122   1.251       .  A
O1118      C1120   1.271       .  A
C1119      O1121   1.290       .  A
C1119      C1163   1.506       .  S
C1120      C1296   1.453       .  S
C1122      C1226   1.474       .  S
Fe1123     O1139   2.046       .  S
Fe1123     O1129   2.014       .  S
Fe1123     O1136   2.035       .  S
Fe1123     O1128   2.118       .  S
Fe1123     O1134   1.902       .  S
Fe1124     O1127   2.155       .  S
Fe1124     O1131   2.153       .  S
Fe1124     O1135   2.142       .  S
Fe1124     O1140   2.125       .  S
Fe1124     O1134   1.933       .  S
Fe1125     O1143   2.048       .  S
Fe1125     O1130   1.986       .  S
Fe1125     O1137   2.074       .  S
Fe1125     O1126   2.046       .  S
Fe1125     O1134   2.008       .  S
O1126      C1133   1.274       .  A
O1127      C1141   1.293       .  A
O1128      C1133   1.282       .  A
O1129      C1132   1.246       .  A
O1130      C1142   1.250       .  A
O1131      C1144   1.289       .  A
C1132      O1137   1.241       .  A
C1133      C1265   1.467       .  S
O1135      C1138   1.279       .  A
O1136      C1138   1.268       .  A
C1138      C1716   1.491       .  S
O1139      C1144   1.268       .  A
O1140      C1142   1.272       .  A
C1141      O1143   1.279       .  A
C1141      C1207   1.488       .  S
Fe1145     O1161   1.985       .  S
Fe1145     O1151   2.079       .  S
Fe1145     O1158   2.095       .  S
Fe1145     O1150   2.059       .  S
Fe1145     O1156   1.926       .  S
Fe1146     O1149   2.074       .  S
Fe1146     O1153   2.152       .  S
Fe1146     O1157   2.114       .  S
Fe1146     O1162   2.157       .  S
Fe1146     O1156   1.989       .  S
Fe1147     O1165   2.148       .  S
Fe1147     O1152   2.018       .  S
Fe1147     O1159   2.070       .  S
Fe1147     O1148   1.995       .  S
Fe1147     O1156   1.945       .  S
O1148      C1155   1.254       .  A
O1149      C1163   1.275       .  A
O1150      C1155   1.259       .  A
O1151      C1154   1.270       .  A
O1152      C1164   1.222       .  A
O1153      C1166   1.285       .  A
C1154      O1159   1.272       .  A
C1154      C1242   1.477       .  S
C1155      C1177   1.429       .  S
O1157      C1160   1.280       .  A
O1158      C1160   1.279       .  A
C1160      C1804   1.494   1_545  S
O1161      C1166   1.251       .  A
O1162      C1164   1.271       .  A
C1163      O1165   1.290       .  A
C1166      C1204   1.474       .  S
Fe1167     O1183   1.980       .  S
Fe1167     O1173   2.040       .  S
Fe1167     O1180   2.079       .  S
Fe1167     O1436   2.049       .  S
Fe1167     O1178   1.929       .  S
Fe1168     O1171   2.061       .  S
Fe1168     O1175   2.193       .  S
Fe1168     O1179   2.108       .  S
Fe1168     O1184   2.174       .  S
Fe1168     O1178   1.918       .  S
Fe1169     O1187   2.108       .  S
Fe1169     O1174   2.008       .  S
Fe1169     O1181   2.029       .  S
Fe1169     O1434   2.042       .  S
Fe1169     O1178   1.932       .  S
O1170     Fe1433   2.042   1_554  S
O1170      C1177   1.266       .  A
O1171      C1185   1.269       .  A
O1172     Fe1431   2.049   1_554  S
O1172      C1177   1.270       .  A
O1173      C1176   1.269       .  A
O1174      C1186   1.248       .  A
O1175      C1188   1.299       .  A
C1176      O1181   1.261       .  A
C1176      C1528   1.441   1_545  S
O1179      C1182   1.269       .  A
O1180      C1182   1.262       .  A
C1182      C1254   1.476       .  S
O1183      C1188   1.262       .  A
O1184      C1186   1.299       .  A
C1185      O1187   1.273       .  A
C1185      C1295   1.482       .  S
C1186      C1318   1.470       .  S
C1188      C1666   1.491   1_545  S
Fe1189     O1205   1.984       .  S
Fe1189     O1195   2.042       .  S
Fe1189     O1202   2.087       .  S
Fe1189     O1194   2.045       .  S
Fe1189     O1200   1.931       .  S
Fe1190     O1193   2.061       .  S
Fe1190     O1197   2.183       .  S
Fe1190     O1201   2.103       .  S
Fe1190     O1206   2.168       .  S
Fe1190     O1200   1.925       .  S
Fe1191     O1209   2.118       .  S
Fe1191     O1196   2.007       .  S
Fe1191     O1203   2.026       .  S
Fe1191     O1192   2.058       .  S
Fe1191     O1200   1.934       .  S
O1192      C1199   1.269       .  A
O1193      C1207   1.269       .  A
O1194      C1199   1.271       .  A
O1195      C1198   1.268       .  A
O1196      C1208   1.248       .  A
O1197      C1210   1.296       .  A
C1198      O1203   1.259       .  A
C1199      C1243   1.431       .  S
O1201      C1204   1.270       .  A
O1202      C1204   1.265       .  A
O1205      C1210   1.262       .  A
O1206      C1208   1.297       .  A
C1207      O1209   1.276       .  A
C1208      C1230   1.468       .  S
Fe1211     O1227   1.984       .  S
Fe1211     O1217   2.043       .  S
Fe1211     O1224   2.087       .  S
Fe1211     O1216   2.045       .  S
Fe1211     O1222   1.931       .  S
Fe1212     O1215   2.061       .  S
Fe1212     O1219   2.183       .  S
Fe1212     O1223   2.103       .  S
Fe1212     O1228   2.168       .  S
Fe1212     O1222   1.925       .  S
Fe1213     O1231   2.118       .  S
Fe1213     O1218   2.007       .  S
Fe1213     O1225   2.026       .  S
Fe1213     O1214   2.058       .  S
Fe1213     O1222   1.934       .  S
O1214      C1221   1.269       .  A
O1215      C1229   1.269       .  A
O1216      C1221   1.271       .  A
O1217      C1748   1.268       .  A
O1218      C1230   1.248       .  A
O1219      C1232   1.296       .  A
C1220      O1745   1.268   1_545  A
C1220      O1753   1.259   1_545  A
C1220      C1286   1.441       .  S
O1223      C1226   1.270       .  A
O1224      C1226   1.265       .  A
O1225      C1748   1.259       .  A
O1227      C1232   1.262       .  A
O1228      C1230   1.297       .  A
C1229      O1231   1.276       .  A
C1229      C1273   1.488       .  S
C1232      C1600   1.487       .  S
Fe1233     O1513   1.997   1_554  S
Fe1233     O1239   2.060       .  S
Fe1233     O1246   2.083       .  S
Fe1233     O1238   2.051       .  S
Fe1233     O1244   1.927       .  S
Fe1234     O1237   2.080       .  S
Fe1234     O1241   2.162       .  S
Fe1234     O1245   2.109       .  S
Fe1234     O1250   2.156       .  S
Fe1234     O1508   1.963       .  S
Fe1235     O1517   2.152       .  S
Fe1235     O1240   2.017       .  S
Fe1235     O1247   2.051       .  S
Fe1235     O1236   2.037       .  S
Fe1235     O1244   1.918       .  S
O1236      C1243   1.262       .  A
O1237      C1251   1.273       .  A
O1238      C1243   1.266       .  A
O1239      C1242   1.273       .  A
O1240      C1252   1.234       .  A
O1241      C1254   1.293       .  A
C1242      O1247   1.273       .  A
O1244     Fe1498   1.963   1_554  S
O1245      C1512   1.271       .  A
O1246      C1248   1.268       .  A
C1248      O1509   1.271       .  A
O1249     Fe1497   1.997       .  S
O1249      C1254   1.260       .  A
O1250      C1516   1.281       .  A
C1251      O1253   1.289       .  A
C1252      O1514   1.281       .  A
C1252      C1274   1.453       .  S
O1253     Fe1499   2.152       .  S
Fe1255     O1271   2.046       .  S
Fe1255     O1261   2.014       .  S
Fe1255     O1268   2.035       .  S
Fe1255     O1524   2.118   1_554  S
Fe1255     O1266   1.902       .  S
Fe1256     O1259   2.155       .  S
Fe1256     O1263   2.153       .  S
Fe1256     O1267   2.142       .  S
Fe1256     O1272   2.125       .  S
Fe1256     O1266   1.933       .  S
Fe1257     O1275   2.048       .  S
Fe1257     O1262   1.986       .  S
Fe1257     O1269   2.074       .  S
Fe1257     O1522   2.046   1_554  S
Fe1257     O1266   2.008       .  S
O1258     Fe1521   2.046       .  S
O1258      C1265   1.274       .  A
O1259      C1273   1.293       .  A
O1260     Fe1519   2.118       .  S
O1260      C1265   1.282       .  A
O1261      C1792   1.246       .  A
O1262      C1274   1.250       .  A
O1263      C1276   1.289       .  A
C1264      O1789   1.246       .  A
C1264      O1797   1.241       .  A
C1264      C1440   1.441   1_564  S
O1267      C1270   1.279       .  A
O1268      C1270   1.268       .  A
O1269      C1792   1.241       .  A
O1271      C1276   1.268       .  A
O1272      C1274   1.272       .  A
C1273      O1275   1.279       .  A
C1276      C1688   1.494       .  S
Fe1277     O1293   2.052       .  S
Fe1277     O1283   2.012       .  S
Fe1277     O1290   2.034       .  S
Fe1277     O1282   2.122       .  S
Fe1277     O1288   1.907       .  S
Fe1278     O1281   2.147       .  S
Fe1278     O1285   2.143       .  S
Fe1278     O1289   2.136       .  S
Fe1278     O1294   2.113       .  S
Fe1278     O1288   1.932       .  S
Fe1279     O1297   2.042       .  S
Fe1279     O1284   1.996       .  S
Fe1279     O1291   2.072       .  S
Fe1279     O1280   2.034       .  S
Fe1279     O1288   2.008       .  S
O1280      C1287   1.273       .  A
O1281      C1295   1.291       .  A
O1282      C1287   1.283       .  A
O1283      C1286   1.246       .  A
O1284      C1296   1.252       .  A
O1285      C1298   1.286       .  A
C1286      O1291   1.242       .  A
O1289      C1292   1.278       .  A
O1290      C1292   1.267       .  A
O1293      C1298   1.269       .  A
O1294      C1296   1.271       .  A
C1295      O1297   1.276       .  A
C1298      C1622   1.493   1_545  S
Fe1299     O1579   1.980       .  S
Fe1299     O1305   2.040       .  S
Fe1299     O1312   2.079       .  S
Fe1299     O1304   2.049       .  S
Fe1299     O1310   1.929       .  S
Fe1300     O1303   2.061       .  S
Fe1300     O1307   2.193       .  S
Fe1300     O1311   2.108       .  S
Fe1300     O1316   2.174   1_554  S
Fe1300     O1574   1.918   1_554  S
Fe1301     O1583   2.108       .  S
Fe1301     O1306   2.008       .  S
Fe1301     O1313   2.029       .  S
Fe1301     O1302   2.042       .  S
Fe1301     O1310   1.932       .  S
O1302      C1309   1.266       .  A
O1303      C1317   1.269       .  A
O1304      C1309   1.270       .  A
O1305      C1308   1.269       .  A
O1306      C1318   1.248       .  A
O1307      C1320   1.299       .  A
C1308      O1313   1.261       .  A
O1310     Fe1564   1.918       .  S
O1311      C1314   1.269   1_554  A
O1312      C1578   1.262       .  A
C1314      O1576   1.262       .  A
C1314      C1364   1.476       .  S
O1315     Fe1563   1.980   1_554  S
O1315      C1320   1.262       .  A
O1316      C1582   1.299       .  A
C1317      O1319   1.273   1_554  A
C1318      O1580   1.299       .  A
O1319     Fe1565   2.108       .  S
Fe1321     O1337   2.052       .  S
Fe1321     O1327   2.012       .  S
Fe1321     O1334   2.034       .  S
Fe1321     O1326   2.122       .  S
Fe1321     O1332   1.907       .  S
Fe1322     O1325   2.147       .  S
Fe1322     O1329   2.143       .  S
Fe1322     O1333   2.136       .  S
Fe1322     O1338   2.113       .  S
Fe1322     O1332   1.932       .  S
Fe1323     O1341   2.042       .  S
Fe1323     O1328   1.996       .  S
Fe1323     O1335   2.072       .  S
Fe1323     O1324   2.034       .  S
Fe1323     O1332   2.008       .  S
O1324      C1331   1.273       .  A
O1325      C1339   1.291       .  A
O1326      C1331   1.283       .  A
O1327      C1330   1.246       .  A
O1328      C1340   1.252       .  A
O1329      C1342   1.286       .  A
C1330      O1335   1.242       .  A
C1331      C1551   1.464       .  S
O1333      C1336   1.278       .  A
O1334      C1336   1.267       .  A
C1336      C2024   1.487   1_545  S
O1337      C1342   1.269       .  A
O1338      C1340   1.271       .  A
C1339      O1341   1.276       .  A
C1339      C1581   1.482       .  S
C1340      C1428   1.453       .  S
Fe1343     O1359   1.997       .  S
Fe1343     O1349   2.060       .  S
Fe1343     O1356   2.083       .  S
Fe1343     O1348   2.051       .  S
Fe1343     O1354   1.927       .  S
Fe1344     O1347   2.080       .  S
Fe1344     O1351   2.162       .  S
Fe1344     O1355   2.109       .  S
Fe1344     O1360   2.156       .  S
Fe1344     O1354   1.963       .  S
Fe1345     O1363   2.152       .  S
Fe1345     O1350   2.017       .  S
Fe1345     O1357   2.051       .  S
Fe1345     O1346   2.037       .  S
Fe1345     O1354   1.918       .  S
O1346      C1353   1.262       .  A
O1347      C1361   1.273       .  A
O1348      C1353   1.266       .  A
O1349      C1352   1.273       .  A
O1350      C1362   1.234       .  A
O1351      C1364   1.293       .  A
C1352      O1357   1.273       .  A
C1352      C1374   1.477       .  S
C1353      C1485   1.431       .  S
O1355      C1358   1.271       .  A
O1356      C1358   1.269       .  A
C1358      C2090   1.493       .  S
O1359      C1364   1.260       .  A
O1360      C1362   1.281       .  A
C1361      O1363   1.289       .  A
C1361      C1515   1.513       .  S
C1362      C1406   1.453       .  S
Fe1365     O1381   1.985       .  S
Fe1365     O1371   2.079       .  S
Fe1365     O1378   2.095       .  S
Fe1365     O1370   2.059       .  S
Fe1365     O1376   1.926       .  S
Fe1366     O1369   2.074       .  S
Fe1366     O1373   2.152       .  S
Fe1366     O1377   2.114       .  S
Fe1366     O1382   2.157       .  S
Fe1366     O1376   1.989       .  S
Fe1367     O1385   2.148       .  S
Fe1367     O1372   2.018       .  S
Fe1367     O1379   2.070       .  S
Fe1367     O1368   1.995       .  S
Fe1367     O1376   1.945       .  S
O1368      C1375   1.254       .  A
O1369      C1383   1.275       .  A
O1370      C1375   1.259       .  A
O1371      C1374   1.270       .  A
O1372      C1384   1.222       .  A
O1373      C1386   1.285       .  A
C1374      O1379   1.272       .  A
C1375      C1573   1.429       .  S
O1377      C1380   1.280       .  A
O1378      C1380   1.279       .  A
O1381      C1386   1.251       .  A
O1382      C1384   1.271       .  A
C1383      O1385   1.290       .  A
C1383      C1427   1.506       .  S
C1384      C1560   1.453       .  S
C1386      C1490   1.474       .  S
Fe1387     O1403   2.046       .  S
Fe1387     O1393   2.014       .  S
Fe1387     O1400   2.035       .  S
Fe1387     O1392   2.118       .  S
Fe1387     O1398   1.902       .  S
Fe1388     O1391   2.155       .  S
Fe1388     O1395   2.153       .  S
Fe1388     O1399   2.142       .  S
Fe1388     O1404   2.125       .  S
Fe1388     O1398   1.933       .  S
Fe1389     O1407   2.048       .  S
Fe1389     O1394   1.986       .  S
Fe1389     O1401   2.074       .  S
Fe1389     O1390   2.046       .  S
Fe1389     O1398   2.008       .  S
O1390      C1397   1.274       .  A
O1391      C1405   1.293       .  A
O1392      C1397   1.282       .  A
O1393      C1396   1.246       .  A
O1394      C1406   1.250       .  A
O1395      C1408   1.289       .  A
C1396      O1401   1.241       .  A
C1397      C1529   1.467       .  S
O1399      C1402   1.279       .  A
O1400      C1402   1.268       .  A
C1402      C1980   1.491       .  S
O1403      C1408   1.268       .  A
O1404      C1406   1.272       .  A
C1405      O1407   1.279       .  A
C1405      C1471   1.488       .  S
Fe1409     O1425   1.985       .  S
Fe1409     O1415   2.079       .  S
Fe1409     O1422   2.095       .  S
Fe1409     O1414   2.059       .  S
Fe1409     O1420   1.926       .  S
Fe1410     O1413   2.074       .  S
Fe1410     O1417   2.152       .  S
Fe1410     O1421   2.114       .  S
Fe1410     O1426   2.157       .  S
Fe1410     O1420   1.989       .  S
Fe1411     O1429   2.148       .  S
Fe1411     O1416   2.018       .  S
Fe1411     O1423   2.070       .  S
Fe1411     O1412   1.995       .  S
Fe1411     O1420   1.945       .  S
O1412      C1419   1.254       .  A
O1413      C1427   1.275       .  A
O1414      C1419   1.259       .  A
O1415      C1418   1.270       .  A
O1416      C1428   1.222       .  A
O1417      C1430   1.285       .  A
C1418      O1423   1.272       .  A
C1418      C1506   1.477       .  S
C1419      C1441   1.429       .  S
O1421      C1424   1.280       .  A
O1422      C1424   1.279       .  A
C1424      C2068   1.494   1_545  S
O1425      C1430   1.251       .  A
O1426      C1428   1.271       .  A
C1427      O1429   1.290       .  A
C1430      C1468   1.474       .  S
Fe1431     O1447   1.980       .  S
Fe1431     O1437   2.040       .  S
Fe1431     O1444   2.079       .  S
Fe1431     O1442   1.929       .  S
Fe1432     O1435   2.061       .  S
Fe1432     O1439   2.193       .  S
Fe1432     O1443   2.108       .  S
Fe1432     O1448   2.174       .  S
Fe1432     O1442   1.918       .  S
Fe1433     O1451   2.108       .  S
Fe1433     O1438   2.008       .  S
Fe1433     O1445   2.029       .  S
Fe1433     O1442   1.932       .  S
O1434      C1441   1.266       .  A
O1435      C1449   1.269       .  A
O1436      C1441   1.270       .  A
O1437      C1440   1.269       .  A
O1438      C1450   1.248       .  A
O1439      C1452   1.299       .  A
C1440      O1445   1.261       .  A
O1443      C1446   1.269       .  A
O1444      C1446   1.262       .  A
C1446      C1518   1.476       .  S
O1447      C1452   1.262       .  A
O1448      C1450   1.299       .  A
C1449      O1451   1.273       .  A
C1449      C1559   1.482       .  S
C1450      C1582   1.470       .  S
C1452      C1930   1.491   1_545  S
Fe1453     O1469   1.984       .  S
Fe1453     O1459   2.042       .  S
Fe1453     O1466   2.087       .  S
Fe1453     O1458   2.045       .  S
Fe1453     O1464   1.931       .  S
Fe1454     O1457   2.061       .  S
Fe1454     O1461   2.183       .  S
Fe1454     O1465   2.103       .  S
Fe1454     O1470   2.168       .  S
Fe1454     O1464   1.925       .  S
Fe1455     O1473   2.118       .  S
Fe1455     O1460   2.007       .  S
Fe1455     O1467   2.026       .  S
Fe1455     O1456   2.058       .  S
Fe1455     O1464   1.934       .  S
O1456      C1463   1.269       .  A
O1457      C1471   1.269       .  A
O1458      C1463   1.271       .  A
O1459      C1462   1.268       .  A
O1460      C1472   1.248       .  A
O1461      C1474   1.296       .  A
C1462      O1467   1.259       .  A
C1463      C1507   1.431       .  S
O1465      C1468   1.270       .  A
O1466      C1468   1.265       .  A
O1469      C1474   1.262       .  A
O1470      C1472   1.297       .  A
C1471      O1473   1.276       .  A
C1472      C1494   1.468       .  S
Fe1475     O1491   1.984       .  S
Fe1475     O1481   2.043       .  S
Fe1475     O1488   2.087       .  S
Fe1475     O1480   2.045       .  S
Fe1475     O1486   1.931       .  S
Fe1476     O1479   2.061       .  S
Fe1476     O1483   2.183       .  S
Fe1476     O1487   2.103       .  S
Fe1476     O1492   2.168       .  S
Fe1476     O1486   1.925       .  S
Fe1477     O1495   2.118       .  S
Fe1477     O1482   2.007       .  S
Fe1477     O1489   2.026       .  S
Fe1477     O1478   2.058       .  S
Fe1477     O1486   1.934       .  S
O1478      C1485   1.269       .  A
O1479      C1493   1.269       .  A
O1480      C1485   1.271       .  A
O1481      C2012   1.268       .  A
O1482      C1494   1.248       .  A
O1483      C1496   1.296       .  A
C1484      O2009   1.268   1_545  A
C1484      O2017   1.259   1_545  A
C1484      C1550   1.441       .  S
O1487      C1490   1.270       .  A
O1488      C1490   1.265       .  A
O1489      C2012   1.259       .  A
O1491      C1496   1.262       .  A
O1492      C1494   1.297       .  A
C1493      O1495   1.276       .  A
C1493      C1537   1.488       .  S
C1496      C1864   1.487       .  S
Fe1497     O1503   2.060       .  S
Fe1497     O1510   2.083       .  S
Fe1497     O1502   2.051       .  S
Fe1497     O1508   1.927       .  S
Fe1498     O1501   2.080       .  S
Fe1498     O1505   2.162       .  S
Fe1498     O1509   2.109   1_556  S
Fe1498     O1514   2.156   1_556  S
Fe1499     O1504   2.017       .  S
Fe1499     O1511   2.051       .  S
Fe1499     O1500   2.037       .  S
Fe1499     O1508   1.918       .  S
O1500      C1507   1.262       .  A
O1501      C1515   1.273       .  A
O1502      C1507   1.266       .  A
O1503      C1506   1.273       .  A
O1504      C1516   1.234       .  A
O1505      C1518   1.293       .  A
C1506      O1511   1.273       .  A
O1510      C1512   1.268       .  A
O1513      C1518   1.260       .  A
C1515      O1517   1.289   1_556  A
C1516      C1538   1.453       .  S
Fe1519     O1535   2.046       .  S
Fe1519     O1525   2.014       .  S
Fe1519     O1532   2.035       .  S
Fe1519     O1530   1.902       .  S
Fe1520     O1523   2.155       .  S
Fe1520     O1527   2.153       .  S
Fe1520     O1531   2.142       .  S
Fe1520     O1536   2.125       .  S
Fe1520     O1530   1.933       .  S
Fe1521     O1539   2.048       .  S
Fe1521     O1526   1.986       .  S
Fe1521     O1533   2.074       .  S
Fe1521     O1530   2.008       .  S
O1522      C1529   1.274       .  A
O1523      C1537   1.293       .  A
O1524      C1529   1.282       .  A
O1525      C2056   1.246       .  A
O1526      C1538   1.250       .  A
O1527      C1540   1.289       .  A
C1528      O2053   1.246       .  A
C1528      O2061   1.241       .  A
O1531      C1534   1.279       .  A
O1532      C1534   1.268       .  A
O1533      C2056   1.241       .  A
O1535      C1540   1.268       .  A
O1536      C1538   1.272       .  A
C1537      O1539   1.279       .  A
C1540      C1952   1.494       .  S
Fe1541     O1557   2.052       .  S
Fe1541     O1547   2.012       .  S
Fe1541     O1554   2.034       .  S
Fe1541     O1546   2.122       .  S
Fe1541     O1552   1.907       .  S
Fe1542     O1545   2.147       .  S
Fe1542     O1549   2.143       .  S
Fe1542     O1553   2.136       .  S
Fe1542     O1558   2.113       .  S
Fe1542     O1552   1.932       .  S
Fe1543     O1561   2.042       .  S
Fe1543     O1548   1.996       .  S
Fe1543     O1555   2.072       .  S
Fe1543     O1544   2.034       .  S
Fe1543     O1552   2.008       .  S
O1544      C1551   1.273       .  A
O1545      C1559   1.291       .  A
O1546      C1551   1.283       .  A
O1547      C1550   1.246       .  A
O1548      C1560   1.252       .  A
O1549      C1562   1.286       .  A
C1550      O1555   1.242       .  A
O1553      C1556   1.278       .  A
O1554      C1556   1.267       .  A
O1557      C1562   1.269       .  A
O1558      C1560   1.271       .  A
C1559      O1561   1.276       .  A
C1562      C1886   1.493   1_545  S
Fe1563     O1569   2.040       .  S
Fe1563     O1576   2.079       .  S
Fe1563     O1568   2.049       .  S
Fe1563     O1574   1.929       .  S
Fe1564     O1567   2.061       .  S
Fe1564     O1571   2.193       .  S
Fe1564     O1575   2.108       .  S
Fe1564     O1580   2.174       .  S
Fe1565     O1570   2.008       .  S
Fe1565     O1577   2.029       .  S
Fe1565     O1566   2.042       .  S
Fe1565     O1574   1.932       .  S
O1566      C1573   1.266       .  A
O1567      C1581   1.269       .  A
O1568      C1573   1.270       .  A
O1569      C1572   1.269       .  A
O1570      C1582   1.248       .  A
O1571      C1584   1.299       .  A
C1572      O1577   1.261       .  A
O1575      C1578   1.269       .  A
O1579      C1584   1.262       .  A
C1581      O1583   1.273       .  A
Fe1585     O1601   2.052       .  S
Fe1585     O1591   2.012       .  S
Fe1585     O1598   2.034       .  S
Fe1585     O1590   2.122       .  S
Fe1585     O1596   1.907       .  S
Fe1586     O1589   2.147       .  S
Fe1586     O1593   2.143       .  S
Fe1586     O1597   2.136       .  S
Fe1586     O1602   2.113       .  S
Fe1586     O1596   1.932       .  S
Fe1587     O1605   2.042       .  S
Fe1587     O1592   1.996       .  S
Fe1587     O1599   2.072       .  S
Fe1587     O1588   2.034       .  S
Fe1587     O1596   2.008       .  S
O1588      C1595   1.273       .  A
O1589      C1603   1.291       .  A
O1590      C1595   1.283       .  A
O1591      C1594   1.246       .  A
O1592      C1604   1.252       .  A
O1593      C1606   1.286       .  A
C1594      O1599   1.242       .  A
C1595      C1815   1.464       .  S
O1597      C1600   1.278       .  A
O1598      C1600   1.267       .  A
O1601      C1606   1.269       .  A
O1602      C1604   1.271       .  A
C1603      O1605   1.276       .  A
C1603      C1845   1.482       .  S
C1604      C1692   1.453       .  S
Fe1607     O1623   1.997       .  S
Fe1607     O1613   2.060       .  S
Fe1607     O1620   2.083       .  S
Fe1607     O1612   2.051       .  S
Fe1607     O1618   1.927       .  S
Fe1608     O1611   2.080       .  S
Fe1608     O1615   2.162       .  S
Fe1608     O1619   2.109       .  S
Fe1608     O1624   2.156       .  S
Fe1608     O1618   1.963       .  S
Fe1609     O1627   2.152       .  S
Fe1609     O1614   2.017       .  S
Fe1609     O1621   2.051       .  S
Fe1609     O1610   2.037       .  S
Fe1609     O1618   1.918       .  S
O1610      C1617   1.262       .  A
O1611      C1625   1.273       .  A
O1612      C1617   1.266       .  A
O1613      C1616   1.273       .  A
O1614      C1626   1.234       .  A
O1615      C1628   1.293       .  A
C1616      O1621   1.273       .  A
C1616      C1638   1.477       .  S
C1617      C1749   1.431       .  S
O1619      C1622   1.271       .  A
O1620      C1622   1.269       .  A
O1623      C1628   1.260       .  A
O1624      C1626   1.281       .  A
C1625      O1627   1.289       .  A
C1625      C1779   1.513       .  S
C1626      C1670   1.453       .  S
C1628      C2106   1.476       .  S
Fe1629     O1645   1.985       .  S
Fe1629     O1635   2.079       .  S
Fe1629     O1642   2.095       .  S
Fe1629     O1634   2.059       .  S
Fe1629     O1640   1.926       .  S
Fe1630     O1633   2.074       .  S
Fe1630     O1637   2.152       .  S
Fe1630     O1641   2.114       .  S
Fe1630     O1646   2.157       .  S
Fe1630     O1640   1.989       .  S
Fe1631     O1649   2.148       .  S
Fe1631     O1636   2.018       .  S
Fe1631     O1643   2.070       .  S
Fe1631     O1632   1.995       .  S
Fe1631     O1640   1.945       .  S
O1632      C1639   1.254       .  A
O1633      C1647   1.275       .  A
O1634      C1639   1.259       .  A
O1635      C1638   1.270       .  A
O1636      C1648   1.222       .  A
O1637      C1650   1.285       .  A
C1638      O1643   1.272       .  A
C1639      C1837   1.429       .  S
O1641      C1644   1.280       .  A
O1642      C1644   1.279       .  A
O1645      C1650   1.251       .  A
O1646      C1648   1.271       .  A
C1647      O1649   1.290       .  A
C1647      C1691   1.506       .  S
C1648      C1824   1.453       .  S
C1650      C1754   1.474       .  S
Fe1651     O1667   2.046       .  S
Fe1651     O1657   2.014       .  S
Fe1651     O1664   2.035       .  S
Fe1651     O1656   2.118       .  S
Fe1651     O1662   1.902       .  S
Fe1652     O1655   2.155       .  S
Fe1652     O1659   2.153       .  S
Fe1652     O1663   2.142       .  S
Fe1652     O1668   2.125       .  S
Fe1652     O1662   1.933       .  S
Fe1653     O1671   2.048       .  S
Fe1653     O1658   1.986       .  S
Fe1653     O1665   2.074       .  S
Fe1653     O1654   2.046       .  S
Fe1653     O1662   2.008       .  S
O1654      C1661   1.274       .  A
O1655      C1669   1.293       .  A
O1656      C1661   1.282       .  A
O1657      C1660   1.246       .  A
O1658      C1670   1.250       .  A
O1659      C1672   1.289       .  A
C1660      O1665   1.241       .  A
C1661      C1793   1.467       .  S
O1663      C1666   1.279       .  A
O1664      C1666   1.268       .  A
O1667      C1672   1.268       .  A
O1668      C1670   1.272       .  A
C1669      O1671   1.279       .  A
C1669      C1735   1.488       .  S
Fe1673     O1689   1.985       .  S
Fe1673     O1679   2.079       .  S
Fe1673     O1686   2.095       .  S
Fe1673     O1678   2.059       .  S
Fe1673     O1684   1.926       .  S
Fe1674     O1677   2.074       .  S
Fe1674     O1681   2.152       .  S
Fe1674     O1685   2.114       .  S
Fe1674     O1690   2.157       .  S
Fe1674     O1684   1.989       .  S
Fe1675     O1693   2.148       .  S
Fe1675     O1680   2.018       .  S
Fe1675     O1687   2.070       .  S
Fe1675     O1676   1.995       .  S
Fe1675     O1684   1.945       .  S
O1676      C1683   1.254       .  A
O1677      C1691   1.275       .  A
O1678      C1683   1.259       .  A
O1679      C1682   1.270       .  A
O1680      C1692   1.222       .  A
O1681      C1694   1.285       .  A
C1682      O1687   1.272       .  A
C1682      C1770   1.477       .  S
C1683      C1705   1.429       .  S
O1685      C1688   1.280       .  A
O1686      C1688   1.279       .  A
O1689      C1694   1.251       .  A
O1690      C1692   1.271       .  A
C1691      O1693   1.290       .  A
C1694      C1732   1.474       .  S
Fe1695     O1711   1.980       .  S
Fe1695     O1701   2.040       .  S
Fe1695     O1708   2.079       .  S
Fe1695     O1964   2.049       .  S
Fe1695     O1706   1.929       .  S
Fe1696     O1699   2.061       .  S
Fe1696     O1703   2.193       .  S
Fe1696     O1707   2.108       .  S
Fe1696     O1712   2.174       .  S
Fe1696     O1706   1.918       .  S
Fe1697     O1715   2.108       .  S
Fe1697     O1702   2.008       .  S
Fe1697     O1709   2.029       .  S
Fe1697     O1962   2.042       .  S
Fe1697     O1706   1.932       .  S
O1698     Fe1961   2.042   1_554  S
O1698      C1705   1.266       .  A
O1699      C1713   1.269       .  A
O1700     Fe1959   2.049   1_554  S
O1700      C1705   1.270       .  A
O1701      C1704   1.269       .  A
O1702      C1714   1.248       .  A
O1703      C1716   1.299       .  A
C1704      O1709   1.261       .  A
C1704      C2056   1.441       .  S
O1707      C1710   1.269       .  A
O1708      C1710   1.262       .  A
C1710      C1782   1.476       .  S
O1711      C1716   1.262       .  A
O1712      C1714   1.299       .  A
C1713      O1715   1.273       .  A
C1713      C1823   1.482       .  S
C1714      C1846   1.470       .  S
Fe1717     O1733   1.984       .  S
Fe1717     O1723   2.042       .  S
Fe1717     O1730   2.087       .  S
Fe1717     O1722   2.045       .  S
Fe1717     O1728   1.931       .  S
Fe1718     O1721   2.061       .  S
Fe1718     O1725   2.183       .  S
Fe1718     O1729   2.103       .  S
Fe1718     O1734   2.168       .  S
Fe1718     O1728   1.925       .  S
Fe1719     O1737   2.118       .  S
Fe1719     O1724   2.007       .  S
Fe1719     O1731   2.026       .  S
Fe1719     O1720   2.058       .  S
Fe1719     O1728   1.934       .  S
O1720      C1727   1.269       .  A
O1721      C1735   1.269       .  A
O1722      C1727   1.271       .  A
O1723      C1726   1.268       .  A
O1724      C1736   1.248       .  A
O1725      C1738   1.296       .  A
C1726      O1731   1.259       .  A
C1727      C1771   1.431       .  S
O1729      C1732   1.270       .  A
O1730      C1732   1.265       .  A
O1733      C1738   1.262       .  A
O1734      C1736   1.297       .  A
C1735      O1737   1.276       .  A
C1736      C1758   1.468       .  S
Fe1739     O1755   1.984       .  S
Fe1739     O1745   2.043       .  S
Fe1739     O1752   2.087       .  S
Fe1739     O1744   2.045       .  S
Fe1739     O1750   1.931       .  S
Fe1740     O1743   2.061       .  S
Fe1740     O1747   2.183       .  S
Fe1740     O1751   2.103       .  S
Fe1740     O1756   2.168       .  S
Fe1740     O1750   1.925       .  S
Fe1741     O1759   2.118       .  S
Fe1741     O1746   2.007       .  S
Fe1741     O1753   2.026       .  S
Fe1741     O1742   2.058       .  S
Fe1741     O1750   1.934       .  S
O1742      C1749   1.269       .  A
O1743      C1757   1.269       .  A
O1744      C1749   1.271       .  A
O1746      C1758   1.248       .  A
O1747      C1760   1.296       .  A
C1748      C1814   1.441       .  S
O1751      C1754   1.270       .  A
O1752      C1754   1.265       .  A
O1755      C1760   1.262       .  A
O1756      C1758   1.297       .  A
C1757      O1759   1.276       .  A
C1757      C1801   1.488       .  S
Fe1761     O2041   1.997   1_554  S
Fe1761     O1767   2.060       .  S
Fe1761     O1774   2.083       .  S
Fe1761     O1766   2.051       .  S
Fe1761     O1772   1.927       .  S
Fe1762     O1765   2.080       .  S
Fe1762     O1769   2.162       .  S
Fe1762     O1773   2.109       .  S
Fe1762     O1778   2.156       .  S
Fe1762     O2036   1.963       .  S
Fe1763     O2045   2.152       .  S
Fe1763     O1768   2.017       .  S
Fe1763     O1775   2.051       .  S
Fe1763     O1764   2.037       .  S
Fe1763     O1772   1.918       .  S
O1764      C1771   1.262       .  A
O1765      C1779   1.273       .  A
O1766      C1771   1.266       .  A
O1767      C1770   1.273       .  A
O1768      C1780   1.234       .  A
O1769      C1782   1.293       .  A
C1770      O1775   1.273       .  A
O1772     Fe2026   1.963   1_554  S
O1773      C2040   1.271       .  A
O1774      C1776   1.268       .  A
C1776      O2037   1.271       .  A
O1777     Fe2025   1.997       .  S
O1777      C1782   1.260       .  A
O1778      C2044   1.281       .  A
C1779      O1781   1.289       .  A
C1780      O2042   1.281       .  A
C1780      C1802   1.453       .  S
O1781     Fe2027   2.152       .  S
Fe1783     O1799   2.046       .  S
Fe1783     O1789   2.014       .  S
Fe1783     O1796   2.035       .  S
Fe1783     O2052   2.118   1_554  S
Fe1783     O1794   1.902       .  S
Fe1784     O1787   2.155       .  S
Fe1784     O1791   2.153       .  S
Fe1784     O1795   2.142       .  S
Fe1784     O1800   2.125       .  S
Fe1784     O1794   1.933       .  S
Fe1785     O1803   2.048       .  S
Fe1785     O1790   1.986       .  S
Fe1785     O1797   2.074       .  S
Fe1785     O2050   2.046   1_554  S
Fe1785     O1794   2.008       .  S
O1786     Fe2049   2.046       .  S
O1786      C1793   1.274       .  A
O1787      C1801   1.293       .  A
O1788     Fe2047   2.118       .  S
O1788      C1793   1.282       .  A
O1790      C1802   1.250       .  A
O1791      C1804   1.289       .  A
C1792      C1968   1.441   1_554  S
O1795      C1798   1.279       .  A
O1796      C1798   1.268       .  A
O1799      C1804   1.268       .  A
O1800      C1802   1.272       .  A
C1801      O1803   1.279       .  A
Fe1805     O1821   2.052       .  S
Fe1805     O1811   2.012       .  S
Fe1805     O1818   2.034       .  S
Fe1805     O1810   2.122       .  S
Fe1805     O1816   1.907       .  S
Fe1806     O1809   2.147       .  S
Fe1806     O1813   2.143       .  S
Fe1806     O1817   2.136       .  S
Fe1806     O1822   2.113       .  S
Fe1806     O1816   1.932       .  S
Fe1807     O1825   2.042       .  S
Fe1807     O1812   1.996       .  S
Fe1807     O1819   2.072       .  S
Fe1807     O1808   2.034       .  S
Fe1807     O1816   2.008       .  S
O1808      C1815   1.273       .  A
O1809      C1823   1.291       .  A
O1810      C1815   1.283       .  A
O1811      C1814   1.246       .  A
O1812      C1824   1.252       .  A
O1813      C1826   1.286       .  A
C1814      O1819   1.242       .  A
O1817      C1820   1.278       .  A
O1818      C1820   1.267       .  A
O1821      C1826   1.269       .  A
O1822      C1824   1.271       .  A
C1823      O1825   1.276       .  A
Fe1827     O2107   1.980       .  S
Fe1827     O1833   2.040       .  S
Fe1827     O1840   2.079       .  S
Fe1827     O1832   2.049       .  S
Fe1827     O1838   1.929       .  S
Fe1828     O1831   2.061       .  S
Fe1828     O1835   2.193       .  S
Fe1828     O1839   2.108       .  S
Fe1828     O1844   2.174   1_554  S
Fe1828     O2102   1.918   1_554  S
Fe1829     O2111   2.108       .  S
Fe1829     O1834   2.008       .  S
Fe1829     O1841   2.029       .  S
Fe1829     O1830   2.042       .  S
Fe1829     O1838   1.932       .  S
O1830      C1837   1.266       .  A
O1831      C1845   1.269       .  A
O1832      C1837   1.270       .  A
O1833      C1836   1.269       .  A
O1834      C1846   1.248       .  A
O1835      C1848   1.299       .  A
C1836      O1841   1.261       .  A
O1838     Fe2092   1.918       .  S
O1839      C1842   1.269   1_554  A
O1840      C2106   1.262       .  A
C1842      O2104   1.262       .  A
C1842      C1892   1.476       .  S
O1843     Fe2091   1.980   1_554  S
O1843      C1848   1.262       .  A
O1844      C2110   1.299       .  A
C1845      O1847   1.273   1_554  A
C1846      O2108   1.299       .  A
O1847     Fe2093   2.108       .  S
Fe1849     O1865   2.052       .  S
Fe1849     O1855   2.012       .  S
Fe1849     O1862   2.034       .  S
Fe1849     O1854   2.122       .  S
Fe1849     O1860   1.907       .  S
Fe1850     O1853   2.147       .  S
Fe1850     O1857   2.143       .  S
Fe1850     O1861   2.136       .  S
Fe1850     O1866   2.113       .  S
Fe1850     O1860   1.932       .  S
Fe1851     O1869   2.042       .  S
Fe1851     O1856   1.996       .  S
Fe1851     O1863   2.072       .  S
Fe1851     O1852   2.034       .  S
Fe1851     O1860   2.008       .  S
O1852      C1859   1.273       .  A
O1853      C1867   1.291       .  A
O1854      C1859   1.283       .  A
O1855      C1858   1.246       .  A
O1856      C1868   1.252       .  A
O1857      C1870   1.286       .  A
C1858      O1863   1.242       .  A
C1859      C2079   1.464       .  S
O1861      C1864   1.278       .  A
O1862      C1864   1.267       .  A
O1865      C1870   1.269       .  A
O1866      C1868   1.271       .  A
C1867      O1869   1.276       .  A
C1867      C2109   1.482       .  S
C1868      C1956   1.453       .  S
Fe1871     O1887   1.997       .  S
Fe1871     O1877   2.060       .  S
Fe1871     O1884   2.083       .  S
Fe1871     O1876   2.051       .  S
Fe1871     O1882   1.927       .  S
Fe1872     O1875   2.080       .  S
Fe1872     O1879   2.162       .  S
Fe1872     O1883   2.109       .  S
Fe1872     O1888   2.156       .  S
Fe1872     O1882   1.963       .  S
Fe1873     O1891   2.152       .  S
Fe1873     O1878   2.017       .  S
Fe1873     O1885   2.051       .  S
Fe1873     O1874   2.037       .  S
Fe1873     O1882   1.918       .  S
O1874      C1881   1.262       .  A
O1875      C1889   1.273       .  A
O1876      C1881   1.266       .  A
O1877      C1880   1.273       .  A
O1878      C1890   1.234       .  A
O1879      C1892   1.293       .  A
C1880      O1885   1.273       .  A
C1880      C1902   1.477       .  S
C1881      C2013   1.431       .  S
O1883      C1886   1.271       .  A
O1884      C1886   1.269       .  A
O1887      C1892   1.260       .  A
O1888      C1890   1.281       .  A
C1889      O1891   1.289       .  A
C1889      C2043   1.513       .  S
C1890      C1934   1.453       .  S
Fe1893     O1909   1.985       .  S
Fe1893     O1899   2.079       .  S
Fe1893     O1906   2.095       .  S
Fe1893     O1898   2.059       .  S
Fe1893     O1904   1.926       .  S
Fe1894     O1897   2.074       .  S
Fe1894     O1901   2.152       .  S
Fe1894     O1905   2.114       .  S
Fe1894     O1910   2.157       .  S
Fe1894     O1904   1.989       .  S
Fe1895     O1913   2.148       .  S
Fe1895     O1900   2.018       .  S
Fe1895     O1907   2.070       .  S
Fe1895     O1896   1.995       .  S
Fe1895     O1904   1.945       .  S
O1896      C1903   1.254       .  A
O1897      C1911   1.275       .  A
O1898      C1903   1.259       .  A
O1899      C1902   1.270       .  A
O1900      C1912   1.222       .  A
O1901      C1914   1.285       .  A
C1902      O1907   1.272       .  A
C1903      C2101   1.429       .  S
O1905      C1908   1.280       .  A
O1906      C1908   1.279       .  A
O1909      C1914   1.251       .  A
O1910      C1912   1.271       .  A
C1911      O1913   1.290       .  A
C1911      C1955   1.506       .  S
C1912      C2088   1.453       .  S
C1914      C2018   1.474       .  S
Fe1915     O1931   2.046       .  S
Fe1915     O1921   2.014       .  S
Fe1915     O1928   2.035       .  S
Fe1915     O1920   2.118       .  S
Fe1915     O1926   1.902       .  S
Fe1916     O1919   2.155       .  S
Fe1916     O1923   2.153       .  S
Fe1916     O1927   2.142       .  S
Fe1916     O1932   2.125       .  S
Fe1916     O1926   1.933       .  S
Fe1917     O1935   2.048       .  S
Fe1917     O1922   1.986       .  S
Fe1917     O1929   2.074       .  S
Fe1917     O1918   2.046       .  S
Fe1917     O1926   2.008       .  S
O1918      C1925   1.274       .  A
O1919      C1933   1.293       .  A
O1920      C1925   1.282       .  A
O1921      C1924   1.246       .  A
O1922      C1934   1.250       .  A
O1923      C1936   1.289       .  A
C1924      O1929   1.241       .  A
C1925      C2057   1.467       .  S
O1927      C1930   1.279       .  A
O1928      C1930   1.268       .  A
O1931      C1936   1.268       .  A
O1932      C1934   1.272       .  A
C1933      O1935   1.279       .  A
C1933      C1999   1.488       .  S
Fe1937     O1953   1.985       .  S
Fe1937     O1943   2.079       .  S
Fe1937     O1950   2.095       .  S
Fe1937     O1942   2.059       .  S
Fe1937     O1948   1.926       .  S
Fe1938     O1941   2.074       .  S
Fe1938     O1945   2.152       .  S
Fe1938     O1949   2.114       .  S
Fe1938     O1954   2.157       .  S
Fe1938     O1948   1.989       .  S
Fe1939     O1957   2.148       .  S
Fe1939     O1944   2.018       .  S
Fe1939     O1951   2.070       .  S
Fe1939     O1940   1.995       .  S
Fe1939     O1948   1.945       .  S
O1940      C1947   1.254       .  A
O1941      C1955   1.275       .  A
O1942      C1947   1.259       .  A
O1943      C1946   1.270       .  A
O1944      C1956   1.222       .  A
O1945      C1958   1.285       .  A
C1946      O1951   1.272       .  A
C1946      C2034   1.477       .  S
C1947      C1969   1.429       .  S
O1949      C1952   1.280       .  A
O1950      C1952   1.279       .  A
O1953      C1958   1.251       .  A
O1954      C1956   1.271       .  A
C1955      O1957   1.290       .  A
C1958      C1996   1.474       .  S
Fe1959     O1975   1.980       .  S
Fe1959     O1965   2.040       .  S
Fe1959     O1972   2.079       .  S
Fe1959     O1970   1.929       .  S
Fe1960     O1963   2.061       .  S
Fe1960     O1967   2.193       .  S
Fe1960     O1971   2.108       .  S
Fe1960     O1976   2.174       .  S
Fe1960     O1970   1.918       .  S
Fe1961     O1979   2.108       .  S
Fe1961     O1966   2.008       .  S
Fe1961     O1973   2.029       .  S
Fe1961     O1970   1.932       .  S
O1962      C1969   1.266       .  A
O1963      C1977   1.269       .  A
O1964      C1969   1.270       .  A
O1965      C1968   1.269       .  A
O1966      C1978   1.248       .  A
O1967      C1980   1.299       .  A
C1968      O1973   1.261       .  A
O1971      C1974   1.269       .  A
O1972      C1974   1.262       .  A
C1974      C2046   1.476       .  S
O1975      C1980   1.262       .  A
O1976      C1978   1.299       .  A
C1977      O1979   1.273       .  A
C1977      C2087   1.482       .  S
C1978      C2110   1.470       .  S
Fe1981     O1997   1.984       .  S
Fe1981     O1987   2.042       .  S
Fe1981     O1994   2.087       .  S
Fe1981     O1986   2.045       .  S
Fe1981     O1992   1.931       .  S
Fe1982     O1985   2.061       .  S
Fe1982     O1989   2.183       .  S
Fe1982     O1993   2.103       .  S
Fe1982     O1998   2.168       .  S
Fe1982     O1992   1.925       .  S
Fe1983     O2001   2.118       .  S
Fe1983     O1988   2.007       .  S
Fe1983     O1995   2.026       .  S
Fe1983     O1984   2.058       .  S
Fe1983     O1992   1.934       .  S
O1984      C1991   1.269       .  A
O1985      C1999   1.269       .  A
O1986      C1991   1.271       .  A
O1987      C1990   1.268       .  A
O1988      C2000   1.248       .  A
O1989      C2002   1.296       .  A
C1990      O1995   1.259       .  A
C1991      C2035   1.431       .  S
O1993      C1996   1.270       .  A
O1994      C1996   1.265       .  A
O1997      C2002   1.262       .  A
O1998      C2000   1.297       .  A
C1999      O2001   1.276       .  A
C2000      C2022   1.468       .  S
Fe2003     O2019   1.984       .  S
Fe2003     O2009   2.043       .  S
Fe2003     O2016   2.087       .  S
Fe2003     O2008   2.045       .  S
Fe2003     O2014   1.931       .  S
Fe2004     O2007   2.061       .  S
Fe2004     O2011   2.183       .  S
Fe2004     O2015   2.103       .  S
Fe2004     O2020   2.168       .  S
Fe2004     O2014   1.925       .  S
Fe2005     O2023   2.118       .  S
Fe2005     O2010   2.007       .  S
Fe2005     O2017   2.026       .  S
Fe2005     O2006   2.058       .  S
Fe2005     O2014   1.934       .  S
O2006      C2013   1.269       .  A
O2007      C2021   1.269       .  A
O2008      C2013   1.271       .  A
O2010      C2022   1.248       .  A
O2011      C2024   1.296       .  A
C2012      C2078   1.441       .  S
O2015      C2018   1.270       .  A
O2016      C2018   1.265       .  A
O2019      C2024   1.262       .  A
O2020      C2022   1.297       .  A
C2021      O2023   1.276       .  A
C2021      C2065   1.488       .  S
Fe2025     O2031   2.060       .  S
Fe2025     O2038   2.083       .  S
Fe2025     O2030   2.051       .  S
Fe2025     O2036   1.927       .  S
Fe2026     O2029   2.080       .  S
Fe2026     O2033   2.162       .  S
Fe2026     O2037   2.109   1_556  S
Fe2026     O2042   2.156   1_556  S
Fe2027     O2032   2.017       .  S
Fe2027     O2039   2.051       .  S
Fe2027     O2028   2.037       .  S
Fe2027     O2036   1.918       .  S
O2028      C2035   1.262       .  A
O2029      C2043   1.273       .  A
O2030      C2035   1.266       .  A
O2031      C2034   1.273       .  A
O2032      C2044   1.234       .  A
O2033      C2046   1.293       .  A
C2034      O2039   1.273       .  A
O2038      C2040   1.268       .  A
O2041      C2046   1.260       .  A
C2043      O2045   1.289   1_556  A
C2044      C2066   1.453       .  S
Fe2047     O2063   2.046       .  S
Fe2047     O2053   2.014       .  S
Fe2047     O2060   2.035       .  S
Fe2047     O2058   1.902       .  S
Fe2048     O2051   2.155       .  S
Fe2048     O2055   2.153       .  S
Fe2048     O2059   2.142       .  S
Fe2048     O2064   2.125       .  S
Fe2048     O2058   1.933       .  S
Fe2049     O2067   2.048       .  S
Fe2049     O2054   1.986       .  S
Fe2049     O2061   2.074       .  S
Fe2049     O2058   2.008       .  S
O2050      C2057   1.274       .  A
O2051      C2065   1.293       .  A
O2052      C2057   1.282       .  A
O2054      C2066   1.250       .  A
O2055      C2068   1.289       .  A
O2059      C2062   1.279       .  A
O2060      C2062   1.268       .  A
O2063      C2068   1.268       .  A
O2064      C2066   1.272       .  A
C2065      O2067   1.279       .  A
Fe2069     O2085   2.052       .  S
Fe2069     O2075   2.012       .  S
Fe2069     O2082   2.034       .  S
Fe2069     O2074   2.122       .  S
Fe2069     O2080   1.907       .  S
Fe2070     O2073   2.147       .  S
Fe2070     O2077   2.143       .  S
Fe2070     O2081   2.136       .  S
Fe2070     O2086   2.113       .  S
Fe2070     O2080   1.932       .  S
Fe2071     O2089   2.042       .  S
Fe2071     O2076   1.996       .  S
Fe2071     O2083   2.072       .  S
Fe2071     O2072   2.034       .  S
Fe2071     O2080   2.008       .  S
O2072      C2079   1.273       .  A
O2073      C2087   1.291       .  A
O2074      C2079   1.283       .  A
O2075      C2078   1.246       .  A
O2076      C2088   1.252       .  A
O2077      C2090   1.286       .  A
C2078      O2083   1.242       .  A
O2081      C2084   1.278       .  A
O2082      C2084   1.267       .  A
O2085      C2090   1.269       .  A
O2086      C2088   1.271       .  A
C2087      O2089   1.276       .  A
Fe2091     O2097   2.040       .  S
Fe2091     O2104   2.079       .  S
Fe2091     O2096   2.049       .  S
Fe2091     O2102   1.929       .  S
Fe2092     O2095   2.061       .  S
Fe2092     O2099   2.193       .  S
Fe2092     O2103   2.108       .  S
Fe2092     O2108   2.174       .  S
Fe2093     O2098   2.008       .  S
Fe2093     O2105   2.029       .  S
Fe2093     O2094   2.042       .  S
Fe2093     O2102   1.932       .  S
O2094      C2101   1.266       .  A
O2095      C2109   1.269       .  A
O2096      C2101   1.270       .  A
O2097      C2100   1.269       .  A
O2098      C2110   1.248       .  A
O2099      C2112   1.299       .  A
C2100      O2105   1.261       .  A
O2103      C2106   1.269       .  A
O2107      C2112   1.262       .  A
C2109      O2111   1.273       .  A
