geometry optimzed in LAMMPS
_audit_creation_date              2020-11-30 
_audit_creation_method            'lammps2cif' 
_symmetry_space_group_name_H-M    'P1' 
_symmetry_Int_Tables_number       1 
_symmetry_cell_setting            triclinic 
loop_ 
_symmetry_equiv_pos_as_xyz 
  x,y,z 
_cell_length_a                    60.06623521 
_cell_length_b                    60.08178242183774 
_cell_length_c                    45.069420696153465 
_cell_angle_alpha                 90.11690153058755 
_cell_angle_beta                  89.94779878592641 
_cell_angle_gamma                 119.79873636433996 
loop_ 
_atom_site_label 
_atom_site_type_symbol 
_atom_site_fract_x 
_atom_site_fract_y 
_atom_site_fract_z 
_atom_site_charge 
In1        In  0.09389691  0.41591292  0.29505614     1.36900
C2          C  0.06456108  0.39604586  0.24684952     0.78200
O3          O  0.07149358  0.37603630  0.31355247    -0.60300
O4          O  0.06740042  0.40611799  0.33295963    -0.51200
C5          C  0.13500316  0.41614514  0.31774260     0.70800
O6          O  0.13017471  0.41308105  0.29018782    -0.46100
C7          C  0.10675060  0.46524665  0.29277492     0.75500
O8          O  0.08432433  0.39405770  0.25116366    -0.57900
O9          O  0.09074688  0.44936030  0.31078641    -0.48000
O10         O  0.06071804  0.40865617  0.26647406    -0.54300
C11         C  0.06137674  0.38280643  0.33357631     0.85700
O12         O  0.11976353  0.42039782  0.33256055    -0.56200
O13         O  0.11723756  0.45610782  0.27613499    -0.59500
In14       In  0.32726821  0.42780168  0.45372431     1.36900
C15         C  0.33762621  0.40905802  0.50261016     0.78200
O16         O  0.31397053  0.38840203  0.43510056    -0.60300
O17         O  0.34666398  0.42036387  0.41615556    -0.51200
C18         C  0.28482985  0.42501857  0.43105497     0.70800
O19         O  0.28755256  0.42369535  0.45872663    -0.46100
C20         C  0.36003324  0.47830131  0.45760527     0.75500
O21         O  0.31535471  0.40538282  0.49723004    -0.57900
O22         O  0.36106495  0.46410129  0.43769495    -0.48000
O23         O  0.35403720  0.42236759  0.48331780    -0.54300
C24         C  0.33128384  0.39649304  0.41551327     0.85700
O25         O  0.30381714  0.42856312  0.41579959    -0.56200
O26         O  0.34155273  0.46674362  0.47545386    -0.59500
In27       In  0.58167450  0.67142358  0.46482814     1.36900
C28         C  0.59894109  0.66136835  0.41463406     0.78200
O29         O  0.62193186  0.68935001  0.48208919    -0.60300
O30         O  0.59389804  0.65255209  0.49808988    -0.51200
C31         C  0.58042415  0.71188133  0.48803804     0.70800
O32         O  0.58202314  0.70936097  0.46030639    -0.46100
C33         C  0.53205201  0.63671389  0.46614604     0.75500
O34         O  0.60299876  0.68365465  0.42077096    -0.57900
O35         O  0.54834298  0.63623718  0.48334059    -0.48000
O36         O  0.58495839  0.64458575  0.43315449    -0.54300
C37         C  0.61682349  0.67062279  0.99886127     0.85700
O38         O  0.57973601  0.69390016  0.50304682    -0.56200
O39         O  0.54098428  0.65559618  0.44859609    -0.59500
In40       In  0.57703081  0.90526063  0.10472756     1.36900
C41         C  0.59572458  0.93503688  0.15323692     0.78200
O42         O  0.61722841  0.92974261  0.08747912    -0.60300
O43         O  0.58591857  0.92522005  0.06134244    -0.51200
C44         C  0.57435545  0.86123686  0.08752363     0.70800
O45         O  0.58075090  0.86986391  0.11366288    -0.46100
C46         C  0.52880815  0.89582202  0.10680051     0.75500
O47         O  0.59764061  0.91514867  0.14952798    -0.57900
O48         O  0.54599776  0.91305696  0.09102161    -0.48000
O49         O  0.58411900  0.93906193  0.13257122    -0.54300
C50         C  0.60986503  0.93522666  0.06378024     0.85700
O51         O  0.56865368  0.87464157  0.07125277    -0.56200
O52         O  0.53610384  0.88261326  0.12136411    -0.59500
In53       In  0.32127476  0.90242740  0.12112329     1.36900
C54         C  0.33081532  0.93171384  0.07220754     0.78200
O55         O  0.30428754  0.92515113  0.14033317    -0.60300
O56         O  0.34074405  0.93179711  0.15565185    -0.51200
C57         C  0.28231695  0.86019686  0.14637268     0.70800
O58         O  0.28237943  0.86521342  0.11900730    -0.46100
C59         C  0.35783645  0.88961029  0.11782197     0.75500
O60         O  0.30883464  0.91248893  0.07715243    -0.57900
O61         O  0.35688764  0.90399914  0.13753165    -0.48000
O62         O  0.34716619  0.93496595  0.09163847    -0.54300
C63         C  0.32342934  0.93777776  0.15698280     0.85700
O64         O  0.30201775  0.87657742  0.15990483    -0.56200
O65         O  0.33927678  0.88094086  0.09969916    -0.59500
In66       In  0.09468694  0.66714622  0.27677638     1.36900
C67         C  0.06585214  0.65613604  0.32579680     0.78200
O68         O  0.06860483  0.68021798  0.25724198    -0.60300
O69         O  0.06761768  0.64685843  0.23987660    -0.51200
C70         C  0.13581056  0.70896382  0.25500990     0.70800
O71         O  0.12933967  0.70736628  0.28201640    -0.46100
C72         C  0.11237672  0.63440595  0.28050418     0.75500
O73         O  0.08367423  0.67866857  0.32015427    -0.57900
O74         O  0.09699398  0.63332403  0.26083508    -0.48000
O75         O  0.06358720  0.63975123  0.30682777    -0.54300
C76         C  0.05902834  0.66216836  0.23853894     0.85700
O77         O  0.12122149  0.68947279  0.23990649    -0.56200
O78         O  0.11934317  0.65292792  0.29839852    -0.59500
In79       In  0.89954121  0.57169869  0.03583093     1.36900
C80         C  0.93197980  0.59298827  0.49007048     0.78200
O81         O  0.91733305  0.60795777  0.06334215    -0.60300
O82         O  0.92298851  0.57707939  0.07582531    -0.51200
C83         C  0.85603237  0.57097142  0.05088472     0.70800
O84         O  0.87058149  0.58549503  0.03067558    -0.46100
C85         C  0.88753622  0.52269242  0.03277887     0.75500
O86         O  0.90826980  0.58537015  0.98776121    -0.57900
O87         O  0.89976001  0.53744620  0.05388960    -0.48000
O88         O  0.93844318  0.58960640  0.01543653    -0.54300
C89         C  0.92687930  0.59922338  0.08175981     0.85700
O90         O  0.86317180  0.55622818  0.06156774    -0.56200
O91         O  0.88121233  0.53302798  0.01253673    -0.59500
In92       In  0.67863846  0.57807333  0.20212348     1.36900
C93         C  0.67170329  0.59992613  0.25077675     0.78200
O94         O  0.69747964  0.61593361  0.17837762    -0.60300
O95         O  0.65908807  0.58795539  0.16724150    -0.51200
C96         C  0.71644417  0.57488889  0.17429393     0.70800
O97         O  0.72050084  0.58755710  0.19819129    -0.46100
C98         C  0.64136243  0.52959665  0.20706738     0.75500
O99         O  0.68785934  0.59213607  0.25052958    -0.57900
O100        O  0.64062746  0.54557222  0.18964457    -0.48000
O101        O  0.65965384  0.59611931  0.22685549    -0.54300
C102        C  0.67784828  0.61011932  0.16280782     0.85700
O103        O  0.69317088  0.56265698  0.16695441    -0.56200
O104        O  0.66167149  0.53830475  0.22235118    -0.59500
In105      In  0.67333069  0.09769852  0.36837195     1.36900
C106        C  0.66385975  0.06672898  0.32083364     0.78200
O107        O  0.69198556  0.07793946  0.39116095    -0.60300
O108        O  0.65684658  0.07335878  0.40789771    -0.51200
C109        C  0.71402314  0.14036657  0.39001100     0.70800
O110        O  0.71519928  0.12989858  0.36605833    -0.46100
C111        C  0.63551389  0.10864786  0.36516593     0.75500
O112        O  0.68053382  0.09037738  0.32013519    -0.57900
O113        O  0.63558773  0.09241584  0.38267980    -0.48000
O114        O  0.65242578  0.05975600  0.34530295    -0.54300
C115        C  0.67468534  0.06821734  0.41072209     0.85700
O116        O  0.69196192  0.12961388  0.40129507    -0.56200
O117        O  0.65522295  0.11983448  0.34889631    -0.59500
In118      In  0.90411498  0.32083938  0.03292968     1.36900
C119        C  0.93300655  0.32646359  0.08106431     0.78200
O120        O  0.92175356  0.30078761  0.00814944    -0.60300
O121        O  0.92887879  0.33737265  0.49356004    -0.51200
C122        C  0.86079240  0.28340539  0.00863813     0.70800
O123        O  0.86896945  0.28074029  0.03358954    -0.46100
C124        C  0.89470929  0.35946716  0.03898606     0.75500
O125        O  0.90913950  0.31057898  0.08066459    -0.57900
O126        O  0.91331052  0.36101753  0.02444437    -0.48000
O127        O  0.94130780  0.33859043  0.05720143    -0.54300
C128        C  0.93218252  0.31847417  0.48910571     0.85700
O129        O  0.87433313  0.30536455  0.49766114    -0.56200
O130        O  0.88086928  0.33803181  0.05128683    -0.59500
In131      In  0.42547285  0.32993048  0.21290718     1.36900
C132        C  0.40392538  0.34224028  0.16813633     0.78200
O133        O  0.38894909  0.31263675  0.23967255    -0.60300
O134        O  0.42047496  0.34803538  0.25346591    -0.51200
C135        C  0.42426952  0.28641460  0.22861135     0.70800
O136        O  0.41162836  0.28741322  0.20670963    -0.46100
C137        C  0.47548193  0.36363623  0.20819842     0.75500
O138        O  0.40842365  0.32381848  0.16631294    -0.57900
O139        O  0.46126256  0.36413112  0.22839166    -0.48000
O140        O  0.41099964  0.35423574  0.19231044    -0.54300
C141        C  0.39780387  0.33056732  0.25853152     0.85700
O142        O  0.43815456  0.30771815  0.24099161    -0.56200
O143        O  0.46397476  0.34574432  0.18954118    -0.59500
In144      In  0.42083977  0.09593908  0.35982349     1.36900
C145        C  0.39852894  0.06464519  0.40642538     0.78200
O146        O  0.38370398  0.07525544  0.33486161    -0.60300
O147        O  0.41475087  0.06946113  0.32290229    -0.51200
C148        C  0.41962627  0.13610175  0.33630986     0.70800
O149        O  0.40790323  0.12568652  0.36014280    -0.46100
C150        C  0.47061007  0.11159063  0.36479282     0.75500
O151        O  0.40407854  0.08795010  0.40683558    -0.57900
O152        O  0.45631101  0.09635288  0.34507320    -0.48000
O153        O  0.40528567  0.05825073  0.38298844    -0.54300
C154        C  0.39188755  0.06397725  0.31820096     0.85700
O155        O  0.43311997  0.12711916  0.32643003    -0.56200
O156        O  0.45932624  0.11882640  0.38285895    -0.59500
C157        C  0.41724426  0.17708845  0.27300187    -0.04900
C158        C  0.41598982  0.19680370  0.28853379     0.09300
C159        C  0.41438831  0.19586671  0.31982642    -0.02300
C160        C  0.41532334  0.17599994  0.33559127    -0.00500
C161        C  0.41735372  0.15658354  0.32011253    -0.04200
C162        C  0.41757347  0.15690611  0.28858902     0.02900
C163        C  0.41799593  0.21934903  0.27186456     0.09700
C164        C  0.41199083  0.21552459  0.33582196     0.35600
C165        C  0.41747524  0.13615919  0.27188861     0.39000
C166        C  0.39611724  0.21829605  0.25886721    -0.04500
C167        C  0.39825343  0.23966988  0.24320576     0.02600
C168        C  0.42237452  0.26231173  0.24042893    -0.04100
C169        C  0.44443639  0.26273805  0.25221213    -0.00300
C170        C  0.44219404  0.24147422  0.26805804    -0.02900
C171        C  0.37133026  0.19529824  0.26205451     0.36300
C172        C  0.46964731  0.28484364  0.24738151     0.40000
C173        C  0.37540373  0.23860333  0.23102734     0.39100
C174        C  0.46483471  0.24232355  0.28062672     0.36000
C175        C  0.41855473  0.17782642  0.24083332     0.36700
C176        C  0.41531473  0.17624052  0.36775988     0.39900
N177        N  0.35717785  0.23774007  0.22125303    -0.38100
N178        N  0.35155331  0.17692639  0.26456783    -0.39700
N179        N  0.48975307  0.30242009  0.24333684    -0.37500
N180        N  0.48281895  0.24291474  0.29075498    -0.39800
N181        N  0.40993271  0.23108777  0.34870190    -0.39600
N182        N  0.41540333  0.17640487  0.39343896    -0.37200
N183        N  0.41729985  0.11961623  0.25848576    -0.38300
N184        N  0.41962154  0.17849630  0.21518599    -0.40000
C185        C  0.56701630  0.09636097  0.36405803    -0.04900
C186        C  0.57083845  0.12147227  0.36557178     0.09300
C187        C  0.59600133  0.14261784  0.36567679    -0.02300
C188        C  0.61731680  0.13863301  0.36469723    -0.00500
C189        C  0.61348189  0.11341495  0.36395175    -0.04200
C190        C  0.58817535  0.09230770  0.36362199     0.02900
C191        C  0.54791979  0.12509075  0.36646368     0.09700
C192        C  0.59983845  0.16839765  0.36698905     0.35600
C193        C  0.58377525  0.06627710  0.36227926     0.39000
C194        C  0.53467497  0.12194080  0.39341055    -0.04500
C195        C  0.50977064  0.11884650  0.39329065     0.02600
C196        C  0.49833731  0.11962527  0.36621150    -0.04100
C197        C  0.51279564  0.12545411  0.33965740    -0.00300
C198        C  0.53738318  0.12788865  0.33976676    -0.02900
C199        C  0.54636989  0.12089454  0.42110851     0.36300
C200        C  0.50226091  0.12863992  0.31205964     0.40000
C201        C  0.49521218  0.11276190  0.42066861     0.39100
C202        C  0.55143432  0.13213171  0.31221626     0.36000
C203        C  0.54113855  0.07463089  0.36251812     0.36700
C204        C  0.64310992  0.16044434  0.36567660     0.39900
N205        N  0.48347570  0.10770099  0.44244490    -0.38100
N206        N  0.55581116  0.12024213  0.44321665    -0.39700
N207        N  0.49388614  0.13124245  0.29006627    -0.37500
N208        N  0.56269896  0.13551076  0.29028181    -0.39800
N209        N  0.60280055  0.18894587  0.36800785    -0.39600
N210        N  0.66368122  0.17789112  0.36647110    -0.37200
N211        N  0.58027030  0.04552499  0.36131888    -0.38300
N212        N  0.52047454  0.05739455  0.36111924    -0.40000
C213        C  0.78253500  0.18730280  0.41730547    -0.04900
C214        C  0.77801511  0.20249580  0.43773387     0.09300
C215        C  0.75283188  0.19813561  0.44126452    -0.02300
C216        C  0.73232312  0.17880339  0.42473098    -0.00500
C217        C  0.73648519  0.16279958  0.40486492    -0.04200
C218        C  0.76190576  0.16732855  0.40131562     0.02900
C219        C  0.79956054  0.22317145  0.45580537     0.09700
C220        C  0.74801578  0.21356853  0.46234533     0.35600
C221        C  0.76689949  0.15079083  0.38231511     0.39000
C222        C  0.80868441  0.24925475  0.44930532    -0.04500
C223        C  0.82743313  0.26876077  0.46749682     0.02600
C224        C  0.83812089  0.26253326  0.49216060    -0.04100
C225        C  0.82823823  0.23623408  0.49912556    -0.00300
C226        C  0.80928209  0.21678408  0.48091923    -0.02900
C227        C  0.79860227  0.25605404  0.42376450     0.36300
C228        C  0.83728841  0.22887915  0.02508287     0.40000
C229        C  0.83486253  0.29523762  0.46105005     0.39100
C230        C  0.79962162  0.19000964  0.48810861     0.36000
C231        C  0.80850978  0.19224774  0.41277601     0.36700
C232        C  0.70695874  0.17580764  0.42823391     0.39900
N233        N  0.84060262  0.31627725  0.45585201    -0.38100
N234        N  0.79052043  0.26152788  0.40348562    -0.39700
N235        N  0.84430450  0.22296178  0.04595988    -0.37500
N236        N  0.79200258  0.16864493  0.49373392    -0.39800
N237        N  0.74441546  0.22603862  0.97913563    -0.39600
N238        N  0.68679995  0.17355213  0.43123413    -0.37200
N239        N  0.77091924  0.13752972  0.36729926    -0.38300
N240        N  0.82923596  0.19620915  0.40907894    -0.40000
C241        C  0.57293640  0.47423571  0.21065839    -0.04900
C242        C  0.57641313  0.45281391  0.20733623     0.09300
C243        C  0.60146927  0.45640619  0.20599322    -0.02300
C244        C  0.62298891  0.48146360  0.20710744    -0.00500
C245        C  0.61941808  0.50298418  0.20928426    -0.04200
C246        C  0.59427553  0.49916983  0.21150723     0.02900
C247        C  0.55325737  0.42656236  0.20658925     0.09700
C248        C  0.60498862  0.43430140  0.20337926     0.35600
C249        C  0.59031234  0.52095192  0.21539768     0.39000
C250        C  0.54024681  0.41615925  0.17960318    -0.04500
C251        C  0.51528237  0.39452533  0.17972837     0.02600
C252        C  0.50332693  0.38309713  0.20693910    -0.04100
C253        C  0.51743377  0.39228235  0.23368096    -0.00300
C254        C  0.54218518  0.41402032  0.23347618    -0.02900
C255        C  0.55206596  0.42861978  0.15185456     0.36300
C256        C  0.50632780  0.37973494  0.26166103     0.40000
C257        C  0.50123474  0.38545970  0.15208163     0.39100
C258        C  0.55576968  0.42447665  0.26115310     0.36000
C259        C  0.54723568  0.47051713  0.21355086     0.36700
C260        C  0.64866450  0.48507390  0.20500556     0.39900
N261        N  0.48993455  0.37829538  0.13006415    -0.38100
N262        N  0.56152062  0.43855930  0.12971139    -0.39700
N263        N  0.49745406  0.36977908  0.28399000    -0.37500
N264        N  0.56663685  0.43298449  0.28316702    -0.39800
N265        N  0.60773305  0.41660835  0.20132565    -0.39600
N266        N  0.66914192  0.48789462  0.20336684    -0.37200
N267        N  0.58725851  0.53837553  0.21851525    -0.38300
N268        N  0.52671725  0.46744595  0.21601751    -0.40000
C269        C  0.86105805  0.39887921  0.03276876    -0.04900
C270        C  0.88176977  0.42390004  0.03739892     0.09300
C271        C  0.90618866  0.42747177  0.04460106    -0.02300
C272        C  0.91015826  0.40628642  0.04613102    -0.00500
C273        C  0.88965458  0.38125069  0.04064228    -0.04200
C274        C  0.86497557  0.37757110  0.03435086     0.02900
C275        C  0.87838339  0.44687799  0.03472516     0.09700
C276        C  0.92731570  0.45311768  0.05030803     0.35600
C277        C  0.84392848  0.35206279  0.02789644     0.39000
C278        C  0.87320507  0.45713300  0.06023441    -0.04500
C279        C  0.87434381  0.48111937  0.05892176     0.02600
C280        C  0.88169867  0.49555030  0.03232956    -0.04100
C281        C  0.88591463  0.48479193  0.00647190    -0.00300
C282        C  0.88372932  0.46027582  0.00757853    -0.02900
C283        C  0.86798678  0.44354339  0.08821377     0.36300
C284        C  0.89468687  0.49976144  0.47943023     0.40000
C285        C  0.86818027  0.49106180  0.08514219     0.39100
C286        C  0.88808503  0.44924525  0.48107793     0.36000
C287        C  0.83583419  0.39511793  0.02597480     0.36700
C288        C  0.93539513  0.41030030  0.05361688     0.39900
N289        N  0.86321732  0.49903058  0.10597599    -0.38100
N290        N  0.86404694  0.43279092  0.11057509    -0.39700
N291        N  0.90199968  0.51185043  0.45798296    -0.37500
N292        N  0.89142420  0.44036652  0.45990539    -0.39800
N293        N  0.94407395  0.47360511  0.05490686    -0.39600
N294        N  0.95551622  0.41347065  0.05953212    -0.37200
N295        N  0.82718145  0.33171122  0.02264934    -0.38300
N296        N  0.81562913  0.39195745  0.02058067    -0.40000
C297        C  0.81408476  0.59618891  0.08375269    -0.04900
C298        C  0.79451730  0.57377412  0.09724832     0.09300
C299        C  0.79333714  0.55008522  0.09193955    -0.02300
C300        C  0.81228793  0.54894906  0.07453344    -0.00500
C301        C  0.83317703  0.57166113  0.06297705    -0.04200
C302        C  0.83341411  0.59521416  0.06672496     0.02900
C303        C  0.77496716  0.57490886  0.11708016     0.09700
C304        C  0.77280785  0.52689960  0.10500404     0.35600
C305        C  0.85401714  0.61866467  0.05423287     0.39000
C306        C  0.75172766  0.57117205  0.10512744    -0.04500
C307        C  0.73307923  0.57176489  0.12369121     0.02600
C308        C  0.73695395  0.57505117  0.15493542    -0.04100
C309        C  0.76030235  0.57849727  0.16685864    -0.00300
C310        C  0.77924824  0.57863658  0.14794409    -0.02900
C311        C  0.74682856  0.56622328  0.07359325     0.36300
C312        C  0.76465610  0.58098898  0.19861002     0.40000
C313        C  0.71027267  0.56981090  0.11007373     0.39100
C314        C  0.80309487  0.58210458  0.16018678     0.36000
C315        C  0.81459263  0.62037162  0.08801197     0.36700
C316        C  0.81000212  0.52420496  0.06815027     0.39900
N317        N  0.69215508  0.56834462  0.09914908    -0.38100
N318        N  0.74283243  0.56203755  0.04849864    -0.39700
N319        N  0.76830747  0.58288438  0.22394149    -0.37500
N320        N  0.82219240  0.58482093  0.16966438    -0.39800
N321        N  0.75643214  0.50846345  0.11556990    -0.39600
N322        N  0.80818468  0.50451647  0.06284725    -0.37200
N323        N  0.87040986  0.63739692  0.04419562    -0.38300
N324        N  0.81493754  0.63963679  0.09139305    -0.40000
C325        C  0.96323497  0.60630539  0.41299339    -0.04900
C326        C  0.98919297  0.62337425  0.42003895     0.09300
C327        C  0.99603512  0.63148917  0.44963670    -0.02300
C328        C  0.97715832  0.62258356  0.47209400    -0.00500
C329        C  0.95113883  0.60469341  0.46540777    -0.04200
C330        C  0.94427853  0.59692349  0.43550997     0.02900
C331        C  0.00956413  0.63228334  0.39645697     0.09700
C332        C  0.02277496  0.64845696  0.45714879     0.35600
C333        C  0.91799756  0.57840029  0.42787381     0.39000
C334        C  0.01935547  0.65676837  0.38351089    -0.04500
C335        C  0.03868965  0.66520936  0.36151482     0.02600
C336        C  0.04812528  0.64899574  0.35184912    -0.04100
C337        C  0.03869368  0.62469104  0.36551134    -0.00300
C338        C  0.01944653  0.61637743  0.38752561    -0.02900
C339        C  0.00889082  0.67296226  0.39224795     0.36300
C340        C  0.04920032  0.60834169  0.35751642     0.40000
C341        C  0.04813601  0.69026452  0.34819849     0.39100
C342        C  0.00950043  0.59122286  0.40082406     0.36000
C343        C  0.95621413  0.59789791  0.38253914     0.36700
C344        C  0.98474336  0.63220657  0.00210660     0.39900
N345        N  0.05573796  0.71031025  0.33767338    -0.38100
N346        N  0.00042467  0.68580595  0.39913684    -0.39700
N347        N  0.05761565  0.59532554  0.35120002    -0.37500
N348        N  0.00140674  0.57110422  0.41132552    -0.39800
N349        N  0.04411320  0.66185237  0.46319605    -0.39600
N350        N  0.99084212  0.63984851  0.02603236    -0.37200
N351        N  0.89706153  0.56358724  0.42163764    -0.38300
N352        N  0.95076135  0.59116949  0.35822059    -0.40000
C353        C  0.95697112  0.61135569  0.15802991    -0.04900
C354        C  0.97666751  0.63705942  0.15537847     0.09300
C355        C  0.97718139  0.65170583  0.13070753    -0.02300
C356        C  0.95972474  0.63989268  0.10712805    -0.00500
C357        C  0.94169461  0.61336118  0.10838480    -0.04200
C358        C  0.93938975  0.59958114  0.13472308     0.02900
C359        C  0.99911247  0.64695048  0.17580814     0.09700
C360        C  0.99656332  0.67860062  0.12902590     0.35600
C361        C  0.91910667  0.57309922  0.13780539     0.39000
C362        C  0.02057044  0.64489592  0.16710670    -0.04500
C363        C  0.04047969  0.65059753  0.18737987     0.02600
C364        C  0.03929889  0.65887929  0.21646346    -0.04100
C365        C  0.01851478  0.66247514  0.22454967    -0.00300
C366        C  0.99820497  0.65602485  0.20439531    -0.02900
C367        C  0.02169597  0.63603970  0.13741888     0.36300
C368        C  0.01736352  0.67172379  0.25395002     0.40000
C369        C  0.06223501  0.64799905  0.17809846     0.39100
C370        C  0.97589619  0.65769498  0.21336569     0.36000
C371        C  0.95570578  0.59661130  0.18408119     0.36700
C372        C  0.96152709  0.65471836  0.08098457     0.39900
N373        N  0.07953113  0.64583160  0.17072782    -0.38100
N374        N  0.02246826  0.62903483  0.11370654    -0.39700
N375        N  0.01648068  0.67925251  0.27732480    -0.37500
N376        N  0.95797591  0.65880093  0.22061007    -0.39800
N377        N  0.01201165  0.70006992  0.12773088    -0.39600
N378        N  0.96301432  0.66664518  0.06017192    -0.37200
N379        N  0.90293886  0.55200310  0.14025164    -0.38300
N380        N  0.95468466  0.58485055  0.20486191    -0.40000
C381        C  0.19364494  0.74881853  0.20485237    -0.04900
C382        C  0.19953314  0.77411256  0.21159530     0.09300
C383        C  0.18518234  0.77812199  0.23371961    -0.02300
C384        C  0.16487782  0.75701407  0.24863592    -0.00500
C385        C  0.15858029  0.73159933  0.24140672    -0.04200
C386        C  0.17325248  0.72771556  0.21943781     0.02900
C387        C  0.22070544  0.79641596  0.19499575     0.09700
C388        C  0.19109661  0.80404178  0.24073298     0.35600
C389        C  0.16752495  0.70192872  0.21174256     0.39000
C390        C  0.21505076  0.80685133  0.16998015    -0.04500
C391        C  0.23499495  0.82714568  0.15364809     0.02600
C392        C  0.26101277  0.83736916  0.16214219    -0.04100
C393        C  0.26652815  0.82655136  0.18721835    -0.00300
C394        C  0.24650668  0.80645989  0.20359162    -0.02900
C395        C  0.18851279  0.79677659  0.16128576     0.36300
C396        C  0.29287423  0.83539466  0.19590613     0.40000
C397        C  0.22845813  0.83791356  0.12863123     0.39100
C398        C  0.25240352  0.79615225  0.22962353     0.36000
C399        C  0.20849939  0.74446305  0.18254758     0.36700
C400        C  0.14960370  0.76147985  0.27023539     0.39900
N401        N  0.22314056  0.84643899  0.10867108    -0.38100
N402        N  0.16727916  0.78872662  0.15455191    -0.39700
N403        N  0.31383981  0.84226740  0.20294142    -0.37500
N404        N  0.25701685  0.78795716  0.25045945    -0.39800
N405        N  0.19580279  0.82476034  0.24621419    -0.39600
N406        N  0.13729900  0.76496859  0.28737532    -0.37200
N407        N  0.16284336  0.68135825  0.20546053    -0.38300
N408        N  0.22033410  0.74089262  0.16483252    -0.40000
C409        C  0.31691584  0.97159647  0.22392052    -0.04900
C410        C  0.33939701  0.99558510  0.22092616     0.09300
C411        C  0.35364486  0.00203196  0.19439678    -0.02300
C412        C  0.34715448  0.98336557  0.17224504    -0.00500
C413        C  0.32616090  0.95848699  0.17652931    -0.04200
C414        C  0.31029456  0.95288781  0.20167723     0.02900
C415        C  0.35070705  0.01209328  0.24738127     0.09700
C416        C  0.37573712  0.02743082  0.19068190     0.35600
C417        C  0.28862706  0.92731520  0.20588531     0.39000
C418        C  0.36610236  0.00694307  0.26656239    -0.04500
C419        C  0.37877812  0.02347686  0.29037669     0.02600
C420        C  0.37612589  0.04532344  0.29511264    -0.04100
C421        C  0.35960676  0.04972235  0.27669855    -0.00300
C422        C  0.34723023  0.03325976  0.25251991    -0.02900
C423        C  0.36950738  0.98495952  0.26123463     0.36300
C424        C  0.35594735  0.07153543  0.28177388     0.40000
C425        C  0.39433121  0.01771149  0.31016275     0.39100
C426        C  0.33167322  0.03846341  0.23219091     0.36000
C427        C  0.30158058  0.96587344  0.25065228     0.36700
C428        C  0.36277346  0.98932371  0.14566716     0.39900
N429        N  0.40676151  0.01317379  0.32591435    -0.38100
N430        N  0.37229563  0.96749050  0.25702849    -0.39700
N431        N  0.35273644  0.08877897  0.28570330    -0.37500
N432        N  0.31939837  0.04252314  0.21565116    -0.39800
N433        N  0.39324602  0.04776040  0.18772292    -0.39600
N434        N  0.37523488  0.99395728  0.12451068    -0.37200
N435        N  0.27143429  0.90686408  0.20932336    -0.38300
N436        N  0.28944032  0.96154553  0.27203362    -0.40000
C437        C  0.32860831  0.97655383  0.01262431    -0.04900
C438        C  0.35359445  0.98756846  0.00048501     0.09300
C439        C  0.37021170  0.97892580  0.01056702    -0.02300
C440        C  0.36238095  0.96014290  0.03308198    -0.00500
C441        C  0.33768449  0.94964943  0.04616867    -0.04200
C442        C  0.32081521  0.95800297  0.03563833     0.02900
C443        C  0.36268945  0.00800571  0.47671475     0.09700
C444        C  0.39547002  0.98928246  0.49734444     0.35600
C445        C  0.29596439  0.94865382  0.04952034     0.39000
C446        C  0.37964599  0.03406783  0.48381938    -0.04500
C447        C  0.39081112  0.05278140  0.46111785     0.02600
C448        C  0.38501428  0.04570206  0.43094637    -0.04100
C449        C  0.36728472  0.01969617  0.42400002    -0.00300
C450        C  0.35653839  0.00100968  0.44667024    -0.02900
C451        C  0.38649273  0.04142232  0.01455356     0.36300
C452        C  0.35986887  0.01196485  0.39340757     0.40000
C453        C  0.40953217  0.07899208  0.46879022     0.39100
C454        C  0.34005708  0.97424231  0.43894905     0.36000
C455        C  0.31090013  0.98431746  0.00137576     0.36700
C456        C  0.37986950  0.95140452  0.04239684     0.39900
N457        N  0.42460342  0.09990259  0.47478898    -0.38100
N458        N  0.39208985  0.04725859  0.03907380    -0.39700
N459        N  0.35392286  0.00578165  0.36903094    -0.37500
N460        N  0.32708218  0.95286475  0.43274920    -0.39800
N461        N  0.41556054  0.99763218  0.48663793    -0.39600
N462        N  0.39387784  0.94451152  0.04983682    -0.37200
N463        N  0.27620602  0.94137360  0.06074680    -0.38300
N464        N  0.29663703  0.99028393  0.99220865    -0.40000
C465        C  0.65047638  0.03755340  0.24221447    -0.04900
C466        C  0.63980975  0.01116043  0.24853741     0.09300
C467        C  0.63916942  0.00341961  0.27814265    -0.02300
C468        C  0.64815829  0.02165809  0.30141061    -0.00500
C469        C  0.65752781  0.04811141  0.29547312    -0.04200
C470        C  0.65922799  0.05592592  0.26549941     0.02900
C471        C  0.62850460  0.99130425  0.22420392     0.09700
C472        C  0.62890013  0.97639696  0.28469842     0.35600
C473        C  0.66921663  0.08277031  0.25840692     0.39000
C474        C  0.64261134  0.98046769  0.21186476    -0.04500
C475        C  0.63165890  0.96134084  0.18954923     0.02600
C476        C  0.60646424  0.95293408  0.17918319    -0.04100
C477        C  0.59216965  0.96341402  0.19215564    -0.00300
C478        C  0.60316209  0.98249983  0.21440720    -0.02900
C479        C  0.66860673  0.98937455  0.22191994     0.36300
C480        C  0.56573045  0.95396920  0.18339336     0.40000
C481        C  0.64676729  0.95107608  0.17652758     0.39100
C482        C  0.58829041  0.99306878  0.22740287     0.36000
C483        C  0.65229207  0.04569983  0.21164732     0.36700
C484        C  0.64812975  0.01295615  0.33139671     0.39900
N485        N  0.65883192  0.94288877  0.16614459    -0.38100
N486        N  0.68936569  0.99658378  0.23004316    -0.39700
N487        N  0.54456094  0.94637487  0.17669304    -0.37500
N488        N  0.57642537  0.00150961  0.23771093    -0.39800
N489        N  0.62075610  0.95486995  0.28978815    -0.39600
N490        N  0.64799287  0.00573935  0.35524964    -0.37200
N491        N  0.67722100  0.10415619  0.25264394    -0.38300
N492        N  0.65380345  0.05214486  0.18716998    -0.40000
C493        C  0.63344472  0.96793912  0.98962212    -0.04900
C494        C  0.65477614  0.99137963  0.99845487     0.09300
C495        C  0.66418881  0.99435435  0.02771432    -0.02300
C496        C  0.65039014  0.97524220  0.04903968    -0.00500
C497        C  0.62754629  0.95276117  0.04084137    -0.04200
C498        C  0.62009887  0.94849050  0.01063842     0.02900
C499        C  0.66467748  0.01395466  0.47825126     0.09700
C500        C  0.68729533  0.01770713  0.03609635     0.35600
C501        C  0.59848217  0.92427817  0.00116746     0.39000
C502        C  0.65810991  0.03310603  0.48385978    -0.04500
C503        C  0.66377915  0.05236962  0.46277175     0.02600
C504        C  0.67458573  0.05170659  0.43513507    -0.04100
C505        C  0.68301221  0.03377273  0.43049055    -0.00300
C506        C  0.67831869  0.01511405  0.45226400    -0.02900
C507        C  0.64432334  0.03228905  0.01069664     0.36300
C508        C  0.69536275  0.03359772  0.40289755     0.40000
C509        C  0.65867580  0.07304802  0.46970591     0.39100
C510        C  0.68659707  0.99645034  0.44751660     0.36000
C511        C  0.62434481  0.96430209  0.95916480     0.36700
C512        C  0.65873622  0.97979918  0.07977682     0.39900
N513        N  0.65484657  0.08967663  0.47519047    -0.38100
N514        N  0.63330958  0.03163955  0.03206142    -0.39700
N515        N  0.70523880  0.03343786  0.38089873    -0.37500
N516        N  0.69315091  0.98152581  0.44371833    -0.39800
N517        N  0.70574755  0.03639095  0.54277362    -0.39600
N518        N  0.66533999  0.98350221  0.10425855    -0.37200
N519        N  0.58127233  0.90495576  0.99347086    -0.38300
N520        N  0.61719270  0.96138740  0.93489536    -0.40000
C521        C  0.45569303  0.86413285  0.10894558    -0.04900
C522        C  0.45239248  0.88576100  0.11079780     0.09300
C523        C  0.47408520  0.91054271  0.11163700    -0.02300
C524        C  0.49894714  0.91379168  0.10978117    -0.00500
C525        C  0.50241651  0.89213977  0.10834911    -0.04200
C526        C  0.48062677  0.86727242  0.10795046     0.02900
C527        C  0.42613764  0.88278062  0.11262433     0.09700
C528        C  0.47075610  0.93274556  0.11507195     0.35600
C529        C  0.48376657  0.84492960  0.10533802     0.39000
C530        C  0.41611602  0.88401808  0.14043283    -0.04500
C531        C  0.39316643  0.88498196  0.14221433     0.02600
C532        C  0.37978230  0.88449106  0.11603017    -0.04100
C533        C  0.38909966  0.88154268  0.08821531    -0.00300
C534        C  0.41236519  0.88104011  0.08656998    -0.02900
C535        C  0.43005747  0.88521624  0.16723337     0.36300
C536        C  0.37563065  0.88032184  0.06103270     0.40000
C537        C  0.38359829  0.88666501  0.17122972     0.39100
C538        C  0.42283911  0.87993218  0.05794509     0.36000
C539        C  0.43337466  0.83866140  0.10830366     0.36700
C540        C  0.52090447  0.93956889  0.10976027     0.39900
N541        N  0.37618151  0.88815926  0.19444216    -0.38100
N542        N  0.44131310  0.88624055  0.18850260    -0.39700
N543        N  0.36492642  0.87925545  0.03926508    -0.37500
N544        N  0.43130446  0.87916959  0.03513679    -0.39800
N545        N  0.46804763  0.95038138  0.11817124    -0.39600
N546        N  0.53833773  0.96016328  0.10950481    -0.37200
N547        N  0.48628479  0.82710593  0.10321719    -0.38300
N548        N  0.41553663  0.81833700  0.10779309    -0.40000
C549        C  0.64849649  0.66325891  0.35981485    -0.04900
C550        C  0.63445351  0.63923290  0.34551845     0.09300
C551        C  0.60816823  0.62350410  0.35226883    -0.02300
C552        C  0.59631033  0.63120890  0.37393799    -0.00500
C553        C  0.61051435  0.65499866  0.38886823    -0.04200
C554        C  0.63656400  0.67123925  0.38112283     0.02900
C555        C  0.64691879  0.63095618  0.32223751     0.09700
C556        C  0.59318224  0.59946870  0.33652265     0.35600
C557        C  0.65148377  0.69584541  0.39574700     0.39000
C558        C  0.65339311  0.61177224  0.32834200    -0.04500
C559        C  0.66278517  0.60234465  0.30550066     0.02600
C560        C  0.66633507  0.61245169  0.27646520    -0.04100
C561        C  0.66163978  0.63302372  0.27108954    -0.00300
C562        C  0.65152328  0.64181583  0.29362420    -0.02900
C563        C  0.65004834  0.60151768  0.35812451     0.36300
C564        C  0.66765581  0.64561085  0.24239194     0.40000
C565        C  0.66752062  0.58138857  0.31160802     0.39100
C566        C  0.64519349  0.66168260  0.28718044     0.36000
C567        C  0.67540723  0.67969356  0.35278269     0.36700
C568        C  0.56921438  0.61482251  0.38029689     0.39900
N569        N  0.67124338  0.56461154  0.31649059    -0.38100
N570        N  0.64745506  0.59341295  0.38193389    -0.39700
N571        N  0.67265668  0.65588345  0.21965137    -0.37500
N572        N  0.64011174  0.67752910  0.28221558    -0.39800
N573        N  0.58119048  0.58032718  0.32390811    -0.39600
N574        N  0.54760257  0.60181497  0.38536363    -0.37200
N575        N  0.66338664  0.71554214  0.40729189    -0.38300
N576        N  0.69686238  0.69285457  0.34710012    -0.40000
C577        C  0.65266965  0.64455091  0.04163112    -0.04900
C578        C  0.66211979  0.66204321  0.06556972     0.09300
C579        C  0.66067965  0.68477342  0.06456692    -0.02300
C580        C  0.64778792  0.68886185  0.04094071    -0.00500
C581        C  0.63576846  0.66985076  0.01888180    -0.04200
C582        C  0.63921659  0.64829566  0.01848872     0.02900
C583        C  0.66914289  0.65396155  0.09363200     0.09700
C584        C  0.67073417  0.70292554  0.08894019     0.35600
C585        C  0.62818940  0.62954894  0.99473291     0.39000
C586        C  0.69226265  0.65337195  0.09584993    -0.04500
C587        C  0.69599289  0.64032935  0.11961915     0.02600
C588        C  0.67642575  0.62768712  0.14097484    -0.04100
C589        C  0.65424581  0.63016690  0.13999170    -0.00300
C590        C  0.65066107  0.64332768  0.11641724    -0.02900
C591        C  0.71150357  0.66502703  0.07279842     0.36300
C592        C  0.63486998  0.61888742  0.16303170     0.40000
C593        C  0.71916500  0.63850237  0.12090963     0.39100
C594        C  0.62729238  0.64483015  0.11478607     0.36000
C595        C  0.65537765  0.62185198  0.04178977     0.36700
C596        C  0.64509770  0.71156217  0.04061347     0.39900
N597        N  0.73765360  0.63705549  0.12196345    -0.38100
N598        N  0.72673265  0.67423179  0.05424300    -0.39700
N599        N  0.61938854  0.60991246  0.18136446    -0.37500
N600        N  0.60877789  0.64620813  0.11341189    -0.39800
N601        N  0.67847539  0.71731324  0.10850298    -0.39600
N602        N  0.64289128  0.72963457  0.54018666    -0.37200
N603        N  0.61934053  0.61459700  0.97581803    -0.38300
N604        N  0.65772368  0.60386082  0.04192746    -0.40000
C605        C  0.59603528  0.81288107  0.06795959    -0.04900
C606        C  0.57723917  0.79720239  0.04703198     0.09300
C607        C  0.55650527  0.80131713  0.04123364    -0.02300
C608        C  0.55498109  0.82149084  0.05545887    -0.00500
C609        C  0.57423206  0.83784715  0.07579307    -0.04200
C610        C  0.59455618  0.83308937  0.08233800     0.02900
C611        C  0.57858130  0.77558644  0.03185641     0.09700
C612        C  0.53666990  0.78465417  0.02052788     0.35600
C613        C  0.61464501  0.84965062  0.10280732     0.39000
C614        C  0.56636350  0.75099441  0.04469226    -0.04500
C615        C  0.56660622  0.73026403  0.03018604     0.02600
C616        C  0.57931349  0.73387903  0.50248458    -0.04100
C617        C  0.59141854  0.75866988  0.48954929    -0.00300
C618        C  0.59111367  0.77938498  0.00426805    -0.02900
C619        C  0.55329117  0.74703090  0.07292883     0.36300
C620        C  0.60467297  0.76320171  0.46138903     0.40000
C621        C  0.55288825  0.70502373  0.04363348     0.39100
C622        C  0.60383013  0.80475376  0.49112338     0.36000
C623        C  0.61706648  0.80830214  0.07440174     0.36700
C624        C  0.53326156  0.82508360  0.04934398     0.39900
N625        N  0.54193074  0.68492067  0.05441118    -0.38100
N626        N  0.54288149  0.74394769  0.09543999    -0.39700
N627        N  0.61520110  0.76690490  0.43886510    -0.37500
N628        N  0.61402842  0.82501486  0.48067654    -0.39800
N629        N  0.52086228  0.77128432  0.00404607    -0.39600
N630        N  0.51591470  0.82787500  0.04432501    -0.37200
N631        N  0.63069767  0.86288495  0.11912347    -0.38300
N632        N  0.63381133  0.80456620  0.07947133    -0.40000
C633        C  0.36495974  0.36865566  0.12960856    -0.04900
C634        C  0.37025273  0.36713710  0.09944202     0.09300
C635        C  0.38552025  0.35619930  0.09162473    -0.02300
C636        C  0.39582507  0.34724201  0.11381468    -0.00500
C637        C  0.39136199  0.34958963  0.14424503    -0.04200
C638        C  0.37546198  0.36005437  0.15189809     0.02900
C639        C  0.36080483  0.37821186  0.07590179     0.09700
C640        C  0.39104376  0.35469908  0.06059069     0.35600
C641        C  0.36935064  0.36163156  0.18272869     0.39000
C642        C  0.37656136  0.40374633  0.06650155    -0.04500
C643        C  0.36850395  0.41399710  0.04342031     0.02600
C644        C  0.34456858  0.39874297  0.02914214    -0.04100
C645        C  0.32844621  0.37331009  0.03920073    -0.00300
C646        C  0.33646062  0.36323348  0.06268215    -0.02900
C647        C  0.40126350  0.41950678  0.08060020     0.36300
C648        C  0.30423855  0.35695055  0.52443929     0.40000
C649        C  0.38496749  0.44047625  0.03461758     0.39100
C650        C  0.31977497  0.33735072  0.07323180     0.36000
C651        C  0.34880132  0.37934451  0.13767609     0.36700
C652        C  0.41175051  0.33645303  0.10515758     0.39900
N653        N  0.39823778  0.46157117  0.02759900    -0.38100
N654        N  0.42096638  0.43210209  0.09183416    -0.39700
N655        N  0.28497069  0.34375283  0.51261329    -0.37500
N656        N  0.30648837  0.31677303  0.08191637    -0.39800
N657        N  0.39544491  0.35364543  0.03578871    -0.39600
N658        N  0.42438294  0.32776046  0.09820185    -0.37200
N659        N  0.36445234  0.36297867  0.20727731    -0.38300
N660        N  0.33584484  0.38781295  0.14403715    -0.40000
C661        C  0.34335536  0.32689196  0.30578999    -0.04900
C662        C  0.35699233  0.34065126  0.33116822     0.09300
C663        C  0.38303230  0.34782023  0.33440639    -0.02300
C664        C  0.39604547  0.34337439  0.31121063    -0.00500
C665        C  0.38301809  0.33157229  0.28452081    -0.04200
C666        C  0.35629476  0.32236293  0.28242849     0.02900
C667        C  0.34575684  0.35203439  0.35163659     0.09700
C668        C  0.39680290  0.36109268  0.36108046     0.35600
C669        C  0.34237201  0.30994711  0.25552346     0.39000
C670        C  0.33737416  0.34206113  0.38036585    -0.04500
C671        C  0.33145611  0.35596519  0.40119244     0.02600
C672        C  0.33357291  0.37967261  0.39306388    -0.04100
C673        C  0.33958397  0.38826275  0.36344595    -0.00300
C674        C  0.34625221  0.37483888  0.34303556    -0.02900
C675        C  0.33573272  0.31800326  0.38872254     0.36300
C676        C  0.33855392  0.41076601  0.35377115     0.40000
C677        C  0.32454024  0.34653189  0.43130185     0.39100
C678        C  0.35496110  0.38521505  0.31353059     0.36000
C679        C  0.31627470  0.31862329  0.30320031     0.36700
C680        C  0.42306501  0.35158220  0.31477309     0.39900
N681        N  0.31902809  0.33905683  0.45534943    -0.38100
N682        N  0.33434677  0.29877903  0.39547430    -0.39700
N683        N  0.33748749  0.42856675  0.34602572    -0.37500
N684        N  0.36208976  0.39344818  0.29004360    -0.39800
N685        N  0.40770713  0.37162577  0.38239819    -0.39600
N686        N  0.44464914  0.35831889  0.31759288    -0.37200
N687        N  0.33123481  0.30011948  0.23404110    -0.38300
N688        N  0.29467046  0.31206906  0.30120872    -0.40000
C689        C  0.45879069  0.60124347  0.46735435    -0.04900
C690        C  0.45317881  0.57555558  0.46460797     0.09300
C691        C  0.47342581  0.57008620  0.46269825    -0.02300
C692        C  0.49911422  0.59008880  0.46365568    -0.00500
C693        C  0.50483479  0.61587514  0.46585154    -0.04200
C694        C  0.48458695  0.62140302  0.46782020     0.02900
C695        C  0.42605556  0.55383432  0.46348082     0.09700
C696        C  0.46773586  0.54373738  0.45938980     0.35600
C697        C  0.49032390  0.64771153  0.47155767     0.39000
C698        C  0.41410287  0.54428904  0.43583531    -0.04500
C699        C  0.39106154  0.52056076  0.43417909     0.02600
C700        C  0.38002806  0.50595167  0.46016493    -0.04100
C701        C  0.39060973  0.51690763  0.48811763    -0.00300
C702        C  0.41368889  0.54069424  0.48969449    -0.02900
C703        C  0.42634874  0.55827264  0.40894585     0.36300
C704        C  0.37876453  0.50316143  0.01524234     0.40000
C705        C  0.37878793  0.51113206  0.40562083     0.39100
C706        C  0.42561732  0.55101588  0.01818416     0.36000
C707        C  0.43801083  0.60683326  0.46984675     0.36700
C708        C  0.51968430  0.58407609  0.46170243     0.39900
N709        N  0.36893182  0.50368326  0.38285385    -0.38100
N710        N  0.43624212  0.56943419  0.38753749    -0.39700
N711        N  0.36931664  0.49229940  0.03696226    -0.37500
N712        N  0.43527562  0.55932197  0.04083824    -0.39800
N713        N  0.46312966  0.52271724  0.45662138    -0.39600
N714        N  0.53611627  0.57932426  0.46028244    -0.37200
N715        N  0.49500687  0.66872612  0.47470767    -0.38300
N716        N  0.42141082  0.61128749  0.47190388    -0.40000
C717        C  0.01594823  0.34632372  0.19324359    -0.04900
C718        C  0.00670327  0.36086641  0.17850991     0.09300
C719        C  0.01796426  0.38732763  0.18467853    -0.02300
C720        C  0.03748198  0.39893228  0.20626137    -0.00500
C721        C  0.04651046  0.38435374  0.22140167    -0.04200
C722        C  0.03620388  0.35814424  0.21407242     0.02900
C723        C  0.98675058  0.34903201  0.15448212     0.09700
C724        C  0.00976796  0.40273981  0.16827129     0.35600
C725        C  0.04623873  0.34323705  0.22804828     0.39000
C726        C  0.96084891  0.34182629  0.15991018    -0.04500
C727        C  0.94274297  0.33289546  0.13639129     0.02600
C728        C  0.95053083  0.33153261  0.10705997    -0.04100
C729        C  0.97643302  0.33809534  0.10203722    -0.00300
C730        C  0.99434652  0.34687900  0.12553456    -0.02900
C731        C  0.95318235  0.34488281  0.18947460     0.36300
C732        C  0.98502421  0.33624741  0.07249857     0.40000
C733        C  0.91654972  0.32672711  0.14220218     0.39100
C734        C  0.02109971  0.35509909  0.11966734     0.36000
C735        C  0.00439497  0.31911075  0.18711836     0.36700
C736        C  0.04900606  0.42621993  0.21211206     0.39900
N737        N  0.89566700  0.32187020  0.14692028    -0.38100
N738        N  0.94718152  0.34760218  0.21301703    -0.39700
N739        N  0.99206771  0.33502147  0.04896578    -0.37500
N740        N  0.04249606  0.36188082  0.11511803    -0.39800
N741        N  0.00328340  0.41499902  0.15500595    -0.39600
N742        N  0.05836140  0.44798631  0.21681374    -0.37200
N743        N  0.05446598  0.33138159  0.23883602    -0.38300
N744        N  0.99508279  0.29736256  0.18233675    -0.40000
C745        C  0.96430407  0.33324922  0.41366733    -0.04900
C746        C  0.98241489  0.32512990  0.41770304     0.09300
C747        C  0.98093477  0.31057741  0.44283507    -0.02300
C748        C  0.96311698  0.30655479  0.46555089    -0.00500
C749        C  0.94717892  0.31765922  0.46327646    -0.04200
C750        C  0.94682005  0.32968608  0.43640946     0.02900
C751        C  0.00554910  0.33634134  0.39835556     0.09700
C752        C  0.99851501  0.30074624  0.44571256     0.35600
C753        C  0.92866678  0.33871340  0.43210481     0.39000
C754        C  0.02672535  0.36008197  0.40665151    -0.04500
C755        C  0.04595721  0.37448763  0.38586465     0.02600
C756        C  0.04399783  0.36527022  0.35656936    -0.04100
C757        C  0.02428858  0.34025691  0.34925147    -0.00300
C758        C  0.00497382  0.32582471  0.37019783    -0.02900
C759        C  0.02795374  0.37035108  0.43616978     0.36300
C760        C  0.02286523  0.32995493  0.31976169     0.40000
C761        C  0.06763799  0.39898869  0.39460080     0.39100
C762        C  0.98393921  0.30070486  0.36243173     0.36000
C763        C  0.96456678  0.34643245  0.38658119     0.36700
C764        C  0.96220922  0.29210366  0.49167714     0.39900
N765        N  0.08498484  0.41851022  0.40140218    -0.38100
N766        N  0.02890093  0.37852689  0.45969790    -0.39700
N767        N  0.02165234  0.32159988  0.29628297    -0.37500
N768        N  0.96724351  0.28062085  0.35611628    -0.39800
N769        N  0.01252698  0.29285767  0.44786968    -0.39600
N770        N  0.96140094  0.28037894  0.01240095    -0.37200
N771        N  0.91424940  0.34597745  0.42872595    -0.38300
N772        N  0.96476772  0.35681622  0.36489594    -0.40000
C773        C  0.12582449  0.58349464  0.31242359    -0.04900
C774        C  0.12461928  0.56973365  0.28650626     0.09300
C775        C  0.12347865  0.57954629  0.25853911    -0.02300
C776        C  0.12164688  0.60199682  0.25653694    -0.00500
C777        C  0.12032714  0.61453616  0.28261510    -0.04200
C778        C  0.12368756  0.60584189  0.31057166     0.02900
C779        C  0.12067749  0.54314346  0.28875772     0.09700
C780        C  0.12269314  0.56565172  0.23183029     0.35600
C781        C  0.12321034  0.61867451  0.33765789     0.39000
C782        C  0.09560074  0.52242150  0.29264401    -0.04500
C783        C  0.09114778  0.49710238  0.29382779     0.02600
C784        C  0.11182937  0.49217912  0.29107467    -0.04100
C785        C  0.13702613  0.51304995  0.28734066    -0.00300
C786        C  0.14140397  0.53846429  0.28623849    -0.02900
C787        C  0.07427644  0.52727501  0.29519607     0.36300
C788        C  0.15856534  0.50852847  0.28579665     0.40000
C789        C  0.06501610  0.47611901  0.29705968     0.39100
C790        C  0.16720972  0.55989363  0.28282976     0.36000
C791        C  0.12781972  0.57374592  0.34112350     0.36700
C792        C  0.12067238  0.61185594  0.22747541     0.39900
N793        N  0.04416245  0.45945054  0.29971000    -0.38100
N794        N  0.05741393  0.53133844  0.29724382    -0.39700
N795        N  0.17574721  0.50488825  0.28468605    -0.37500
N796        N  0.18777721  0.57708632  0.28018315    -0.39800
N797        N  0.12194417  0.55451670  0.21052409    -0.39600
N798        N  0.11982968  0.61966576  0.20429783    -0.37200
N799        N  0.12281817  0.62882768  0.35934471    -0.38300
N800        N  0.12935903  0.56588573  0.36399034    -0.40000
C801        C  0.20209749  0.42833348  0.33694523    -0.04900
C802        C  0.19776264  0.41650827  0.36505707     0.09300
C803        C  0.17256082  0.40270179  0.37622126    -0.02300
C804        C  0.15196113  0.40167529  0.36006291    -0.00500
C805        C  0.15638828  0.41455847  0.33249722    -0.04200
C806        C  0.18144418  0.42714383  0.32055728     0.02900
C807        C  0.21968167  0.41834237  0.38295846     0.09700
C808        C  0.16791443  0.38964558  0.40452216     0.35600
C809        C  0.18614274  0.43956831  0.29188115     0.39000
C810        C  0.23261848  0.43847139  0.40363506    -0.04500
C811        C  0.25331498  0.44020087  0.42043793     0.02600
C812        C  0.26113674  0.42176727  0.41665957    -0.04100
C813        C  0.24769486  0.40124777  0.39655333    -0.00300
C814        C  0.22706440  0.39955128  0.37979169    -0.02900
C815        C  0.22470694  0.45751374  0.40732041     0.36300
C816        C  0.25488344  0.38159266  0.39345765     0.40000
C817        C  0.26713809  0.46142894  0.44078069     0.39100
C818        C  0.21338859  0.37848667  0.35917494     0.36000
C819        C  0.22794528  0.44216850  0.32518722     0.36700
C820        C  0.12605609  0.38663395  0.37153468     0.39900
N821        N  0.27819437  0.47840000  0.45699331    -0.38100
N822        N  0.21827466  0.47263446  0.41016264    -0.39700
N823        N  0.26056068  0.36586735  0.39114685    -0.37500
N824        N  0.20240189  0.36169860  0.34271722    -0.39800
N825        N  0.16430560  0.37923667  0.42708300    -0.39600
N826        N  0.10543129  0.37447641  0.38068706    -0.37200
N827        N  0.18975656  0.44933954  0.26890545    -0.38300
N828        N  0.24859369  0.45328282  0.31583100    -0.40000
In829      In  0.09389659  0.41591289  0.79505610     1.36900
C830        C  0.06456079  0.39604608  0.74684946     0.78200
O831        O  0.07149316  0.37603622  0.81355243    -0.60300
O832        O  0.06740002  0.40611798  0.83295937    -0.51200
C833        C  0.13500278  0.41614494  0.81774254     0.70800
O834        O  0.13017443  0.41308110  0.79018771    -0.46100
C835        C  0.10675067  0.46524673  0.79277522     0.75500
O836        O  0.08432386  0.39405762  0.75116373    -0.57900
O837        O  0.09074689  0.44936036  0.81078660    -0.48000
O838        O  0.06071795  0.40865663  0.76647388    -0.54300
C839        C  0.06137625  0.38280646  0.83357618     0.85700
O840        O  0.11976313  0.42039751  0.83256053    -0.56200
O841        O  0.11723758  0.45610788  0.77613517    -0.59500
In842      In  0.32726803  0.42780205  0.95372444     1.36900
C843        C  0.33762577  0.40905831  0.00261038     0.78200
O844        O  0.31397044  0.38840253  0.93510046    -0.60300
O845        O  0.34666410  0.42036443  0.91615589    -0.51200
C846        C  0.28482966  0.42501889  0.93105495     0.70800
O847        O  0.28755233  0.42369566  0.95872664    -0.46100
C848        C  0.36003301  0.47830177  0.95760518     0.75500
O849        O  0.31535430  0.40538309  0.99723007    -0.57900
O850        O  0.36106474  0.46410163  0.93769497    -0.48000
O851        O  0.35403688  0.42236793  0.98331817    -0.54300
C852        C  0.33128388  0.39649361  0.91551338     0.85700
O853        O  0.30381697  0.42856343  0.91579965    -0.56200
O854        O  0.34155252  0.46674419  0.97545373    -0.59500
In855      In  0.58167441  0.67142373  0.96482805     1.36900
C856        C  0.59894102  0.66136862  0.91463395     0.78200
O857        O  0.62193181  0.68934985  0.98208887    -0.60300
O858        O  0.59389769  0.65255229  0.99809012    -0.51200
C859        C  0.58042438  0.71188156  0.98803800     0.70800
O860        O  0.58202316  0.70936111  0.96030637    -0.46100
C861        C  0.53205200  0.63671415  0.96614579     0.75500
O862        O  0.60299872  0.68365492  0.92077089    -0.57900
O863        O  0.54834289  0.63623729  0.98334031    -0.48000
O864        O  0.58495837  0.64458603  0.93315437    -0.54300
C865        C  0.61682373  0.67062280  0.49886127     0.85700
O866        O  0.57973630  0.69390041  0.00304682    -0.56200
O867        O  0.54098425  0.65559650  0.94859599    -0.59500
In868      In  0.57703078  0.90526058  0.60472723     1.36900
C869        C  0.59572482  0.93503709  0.65323638     0.78200
O870        O  0.61722831  0.92974254  0.58747856    -0.60300
O871        O  0.58591835  0.92521986  0.56134206    -0.51200
C872        C  0.57435543  0.86123677  0.58752348     0.70800
O873        O  0.58075108  0.86986399  0.61366261    -0.46100
C874        C  0.52880814  0.89582216  0.60680023     0.75500
O875        O  0.59764060  0.91514876  0.64952765    -0.57900
O876        O  0.54599776  0.91305698  0.59102121    -0.48000
O877        O  0.58411932  0.93906217  0.63257054    -0.54300
C878        C  0.60986483  0.93522654  0.56377972     0.85700
O879        O  0.56865353  0.87464136  0.57125256    -0.56200
O880        O  0.53610385  0.88261344  0.62136393    -0.59500
In881      In  0.32127477  0.90242783  0.62112294     1.36900
C882        C  0.33081510  0.93171409  0.57220706     0.78200
O883        O  0.30428735  0.92515144  0.64033267    -0.60300
O884        O  0.34074395  0.93179765  0.65565137    -0.51200
C885        C  0.28231701  0.86019717  0.64637235     0.70800
O886        O  0.28237941  0.86521377  0.61900700    -0.46100
C887        C  0.35783649  0.88961077  0.61782166     0.75500
O888        O  0.30883446  0.91248906  0.57715207    -0.57900
O889        O  0.35688767  0.90399967  0.63753121    -0.48000
O890        O  0.34716605  0.93496632  0.59163795    -0.54300
C891        C  0.32342910  0.93777815  0.65698229     0.85700
O892        O  0.30201788  0.87657773  0.65990441    -0.56200
O893        O  0.33927678  0.88094120  0.59969886    -0.59500
In894      In  0.09468738  0.66714646  0.77677627     1.36900
C895        C  0.06585242  0.65613613  0.82579652     0.78200
O896        O  0.06860519  0.68021813  0.75724193    -0.60300
O897        O  0.06761820  0.64685870  0.73987637    -0.51200
C898        C  0.13581099  0.70896400  0.75500980     0.70800
O899        O  0.12934010  0.70736648  0.78201632    -0.46100
C900        C  0.11237704  0.63440606  0.78050417     0.75500
O901        O  0.08367460  0.67866867  0.82015420    -0.57900
O902        O  0.09699437  0.63332418  0.76083505    -0.48000
O903        O  0.06358749  0.63975139  0.80682739    -0.54300
C904        C  0.05902871  0.66216849  0.73853889     0.85700
O905        O  0.12122190  0.68947296  0.73990641    -0.56200
O906        O  0.11934354  0.65292811  0.79839847    -0.59500
In907      In  0.89954111  0.57169883  0.53583135     1.36900
C908        C  0.93197990  0.59298809  0.99006999     0.78200
O909        O  0.91733295  0.60795792  0.56334260    -0.60300
O910        O  0.92298840  0.57707954  0.57582574    -0.51200
C911        C  0.85603225  0.57097148  0.55088511     0.70800
O912        O  0.87058124  0.58549494  0.53067579    -0.46100
C913        C  0.88753620  0.52269257  0.53277941     0.75500
O914        O  0.90826966  0.58537008  0.48776166    -0.57900
O915        O  0.89976009  0.53744645  0.55389011    -0.48000
O916        O  0.93844318  0.58960686  0.51543713    -0.54300
C917        C  0.92687919  0.59922358  0.58176027     0.85700
O918        O  0.86317182  0.55622838  0.56156830    -0.56200
O919        O  0.88121220  0.53302807  0.51253734    -0.59500
In920      In  0.67863805  0.57807293  0.70212369     1.36900
C921        C  0.67170278  0.59992572  0.75077692     0.78200
O922        O  0.69747916  0.61593346  0.67837816    -0.60300
O923        O  0.65908787  0.58795497  0.66724141    -0.51200
C924        C  0.71644396  0.57488874  0.67429433     0.70800
O925        O  0.72050052  0.58755681  0.69819183    -0.46100
C926        C  0.64136201  0.52959621  0.70706769     0.75500
O927        O  0.68785911  0.59213597  0.75052969    -0.57900
O928        O  0.64062701  0.54557175  0.68964485    -0.48000
O929        O  0.65965306  0.59611847  0.72685583    -0.54300
C930        C  0.67784791  0.61011903  0.66280802     0.85700
O931        O  0.69317073  0.56265689  0.66695467    -0.56200
O932        O  0.66167106  0.53830431  0.72235144    -0.59500
In933      In  0.67333080  0.09769813  0.86837192     1.36900
C934        C  0.66386001  0.06672886  0.82083346     0.78200
O935        O  0.69198568  0.07793917  0.89116116    -0.60300
O936        O  0.65684632  0.07335799  0.90789731    -0.51200
C937        C  0.71402322  0.14036614  0.89001131     0.70800
O938        O  0.71519942  0.12989816  0.86605870    -0.46100
C939        C  0.63551419  0.10864782  0.86516606     0.75500
O940        O  0.68053409  0.09037729  0.82013514    -0.57900
O941        O  0.63558805  0.09241588  0.88268000    -0.48000
O942        O  0.65242597  0.05975574  0.84530269    -0.54300
C943        C  0.67468522  0.06821679  0.91072200     0.85700
O944        O  0.69196187  0.12961344  0.90129521    -0.56200
O945        O  0.65522315  0.11983422  0.84889621    -0.59500
In946      In  0.90411528  0.32083969  0.53292915     1.36900
C947        C  0.93300675  0.32646375  0.58106376     0.78200
O948        O  0.92175375  0.30078780  0.50814899    -0.60300
O949        O  0.92887805  0.33737219  0.99356018    -0.51200
C950        C  0.86079279  0.28340576  0.50863735     0.70800
O951        O  0.86896959  0.28074073  0.53358897    -0.46100
C952        C  0.89470941  0.35946739  0.53898574     0.75500
O953        O  0.90913978  0.31057892  0.58066383    -0.57900
O954        O  0.91331052  0.36101779  0.52444385    -0.48000
O955        O  0.94130802  0.33859089  0.55720103    -0.54300
C956        C  0.93218199  0.31847381  0.98910595     0.85700
O957        O  0.87433247  0.30536428  0.99766210    -0.56200
O958        O  0.88086949  0.33803196  0.55128655    -0.59500
In959      In  0.42547235  0.32992980  0.71290762     1.36900
C960        C  0.40392534  0.34223991  0.66813666     0.78200
O961        O  0.38894841  0.31263637  0.73967275    -0.60300
O962        O  0.42047458  0.34803466  0.75346644    -0.51200
C963        C  0.42426886  0.28641381  0.72861186     0.70800
O964        O  0.41162764  0.28741249  0.70671018    -0.46100
C965        C  0.47548148  0.36363554  0.70819914     0.75500
O966        O  0.40842334  0.32381789  0.66631330    -0.57900
O967        O  0.46126208  0.36413032  0.72839232    -0.48000
O968        O  0.41099956  0.35423531  0.69231074    -0.54300
C969        C  0.39780329  0.33056675  0.75853185     0.85700
O970        O  0.43815400  0.30771738  0.74099202    -0.56200
O971        O  0.46397436  0.34574365  0.68954177    -0.59500
In972      In  0.42083987  0.09593857  0.85982360     1.36900
C973        C  0.39852926  0.06464462  0.90642546     0.78200
O974        O  0.38370391  0.07525468  0.83486202    -0.60300
O975        O  0.41475083  0.06946052  0.82290240    -0.51200
C976        C  0.41962621  0.13610116  0.83631002     0.70800
O977        O  0.40790358  0.12568619  0.86014323    -0.46100
C978        C  0.47061027  0.11159031  0.86479283     0.75500
O979        O  0.40407857  0.08794951  0.90683557    -0.57900
O980        O  0.45631120  0.09635243  0.84507330    -0.48000
O981        O  0.40528622  0.05825030  0.88298864    -0.54300
C982        C  0.39188743  0.06397661  0.81820118     0.85700
O983        O  0.43311956  0.12711830  0.82642975    -0.56200
O984        O  0.45932639  0.11882603  0.88285891    -0.59500
C985        C  0.41724338  0.17708766  0.77300232    -0.04900
C986        C  0.41598931  0.19680306  0.78853442     0.09300
C987        C  0.41438838  0.19586626  0.81982710    -0.02300
C988        C  0.41532360  0.17599952  0.83559182    -0.00500
C989        C  0.41735357  0.15658296  0.82011286    -0.04200
C990        C  0.41757278  0.15690542  0.78858941     0.02900
C991        C  0.41799532  0.21934834  0.77186525     0.09700
C992        C  0.41199126  0.21552417  0.83582274     0.35600
C993        C  0.41747429  0.13615833  0.77188870     0.39000
C994        C  0.39611656  0.21829539  0.75886807    -0.04500
C995        C  0.39825272  0.23966910  0.74320648     0.02600
C996        C  0.42237381  0.26231095  0.74042936    -0.04100
C997        C  0.44443573  0.26273721  0.75221240    -0.00300
C998        C  0.44219347  0.24147349  0.76805840    -0.02900
C999        C  0.37132956  0.19529759  0.76205567     0.36300
C1000       C  0.46964661  0.28484275  0.74738156     0.40000
C1001       C  0.37540294  0.23860251  0.73102800     0.39100
C1002       C  0.46483413  0.24232279  0.78062682     0.36000
C1003       C  0.41855344  0.17782556  0.74083389     0.36700
C1004       C  0.41531566  0.17624035  0.86776044     0.39900
N1005       N  0.35717710  0.23773922  0.72125382    -0.38100
N1006       N  0.35155266  0.17692576  0.76456912    -0.39700
N1007       N  0.48975240  0.30241912  0.74333658    -0.37500
N1008       N  0.48281858  0.24291406  0.79075491    -0.39800
N1009       N  0.40993339  0.23108752  0.84870295    -0.39600
N1010       N  0.41540478  0.17640482  0.89343954    -0.37200
N1011       N  0.41729868  0.11961556  0.75848570    -0.38300
N1012       N  0.41961994  0.17849545  0.71518639    -0.40000
C1013       C  0.56701669  0.09636125  0.86405846    -0.04900
C1014       C  0.57083893  0.12147260  0.86557172     0.09300
C1015       C  0.59600186  0.14261811  0.86567652    -0.02300
C1016       C  0.61731723  0.13863314  0.86469708    -0.00500
C1017       C  0.61348227  0.11341508  0.86395194    -0.04200
C1018       C  0.58817567  0.09230788  0.86362259     0.02900
C1019       C  0.54792030  0.12509113  0.86646360     0.09700
C1020       C  0.59983906  0.16839797  0.86698852     0.35600
C1021       C  0.58377544  0.06627722  0.86228044     0.39000
C1022       C  0.53467555  0.12194134  0.89341039    -0.04500
C1023       C  0.50977111  0.11884681  0.89329066     0.02600
C1024       C  0.49833759  0.11962516  0.86621136    -0.04100
C1025       C  0.51279579  0.12545373  0.83965726    -0.00300
C1026       C  0.53738353  0.12788869  0.83976654    -0.02900
C1027       C  0.54637071  0.12089558  0.92110850     0.36300
C1028       C  0.50226078  0.12863893  0.81205927     0.40000
C1029       C  0.49521286  0.11276239  0.92066848     0.39100
C1030       C  0.55143455  0.13213160  0.81221618     0.36000
C1031       C  0.54113888  0.07463119  0.86251911     0.36700
C1032       C  0.64311048  0.16044448  0.86567611     0.39900
N1033       N  0.48347629  0.10770150  0.94244504    -0.38100
N1034       N  0.55581208  0.12024359  0.94321661    -0.39700
N1035       N  0.49388592  0.13124101  0.79006584    -0.37500
N1036       N  0.56269917  0.13551051  0.79028150    -0.39800
N1037       N  0.60280120  0.18894619  0.86800711    -0.39600
N1038       N  0.66368172  0.17789109  0.86647036    -0.37200
N1039       N  0.58027034  0.04552506  0.86132039    -0.38300
N1040       N  0.52047483  0.05739486  0.86112072    -0.40000
C1041       C  0.78253498  0.18730218  0.91730642    -0.04900
C1042       C  0.77801493  0.20249518  0.93773470     0.09300
C1043       C  0.75283174  0.19813503  0.94126507    -0.02300
C1044       C  0.73232307  0.17880289  0.92473136    -0.00500
C1045       C  0.73648520  0.16279906  0.90486542    -0.04200
C1046       C  0.76190577  0.16732796  0.90131639     0.02900
C1047       C  0.79956029  0.22317087  0.95580625     0.09700
C1048       C  0.74801550  0.21356795  0.96234586     0.35600
C1049       C  0.76689960  0.15079041  0.88231575     0.39000
C1050       C  0.80868423  0.24925411  0.94930593    -0.04500
C1051       C  0.82743285  0.26876020  0.96749742     0.02600
C1052       C  0.83812049  0.26253281  0.99216138    -0.04100
C1053       C  0.82823780  0.23623367  0.99912660    -0.00300
C1054       C  0.80928165  0.21678358  0.98092034    -0.02900
C1055       C  0.79860220  0.25605329  0.92376483     0.36300
C1056       C  0.83728894  0.22887944  0.52508165     0.40000
C1057       C  0.83486228  0.29523703  0.96105033     0.39100
C1058       C  0.79962107  0.19000919  0.98811002     0.36000
C1059       C  0.80850961  0.19224708  0.91277722     0.36700
C1060       C  0.70695879  0.17580725  0.92823391     0.39900
N1061       N  0.84060243  0.31627660  0.95585213    -0.38100
N1062       N  0.79052041  0.26152688  0.90348578    -0.39700
N1063       N  0.84430516  0.22296193  0.54595842    -0.37500
N1064       N  0.79200199  0.16864451  0.99373562    -0.39800
N1065       N  0.74441572  0.22603914  0.47913529    -0.39600
N1066       N  0.68679995  0.17355184  0.93123383    -0.37200
N1067       N  0.77091942  0.13752945  0.86729965    -0.38300
N1068       N  0.82923599  0.19620851  0.90908021    -0.40000
C1069       C  0.57293595  0.47423535  0.71065855    -0.04900
C1070       C  0.57641262  0.45281355  0.70733657     0.09300
C1071       C  0.60146873  0.45640574  0.70599381    -0.02300
C1072       C  0.62298842  0.48146316  0.70710803    -0.00500
C1073       C  0.61941762  0.50298374  0.70928466    -0.04200
C1074       C  0.59427510  0.49916950  0.71150755     0.02900
C1075       C  0.55325679  0.42656192  0.70658967     0.09700
C1076       C  0.60498804  0.43430095  0.70338003     0.35600
C1077       C  0.59031199  0.52095159  0.71539809     0.39000
C1078       C  0.54024618  0.41615876  0.67960363    -0.04500
C1079       C  0.51528175  0.39452471  0.67972895     0.02600
C1080       C  0.50332647  0.38309655  0.70693968    -0.04100
C1081       C  0.51743332  0.39228186  0.73368160    -0.00300
C1082       C  0.54218479  0.41401992  0.73347665    -0.02900
C1083       C  0.55206517  0.42861917  0.65185500     0.36300
C1084       C  0.50632749  0.37973466  0.76166159     0.40000
C1085       C  0.50123406  0.38545902  0.65208225     0.39100
C1086       C  0.55576942  0.42447613  0.76115345     0.36000
C1087       C  0.54723518  0.47051685  0.71355084     0.36700
C1088       C  0.64866405  0.48507338  0.70500633     0.39900
N1089       N  0.48993380  0.37829456  0.63006477    -0.38100
N1090       N  0.56151979  0.43855866  0.62971172    -0.39700
N1091       N  0.49745374  0.36977882  0.78399080    -0.37500
N1092       N  0.56663683  0.43298387  0.78316739    -0.39800
N1093       N  0.60773247  0.41660787  0.70132648    -0.39600
N1094       N  0.66914137  0.48789398  0.70336768    -0.37200
N1095       N  0.58725821  0.53837526  0.71851582    -0.38300
N1096       N  0.52671687  0.46744568  0.71601742    -0.40000
C1097       C  0.86105809  0.39887934  0.53276889    -0.04900
C1098       C  0.88176982  0.42390022  0.53739914     0.09300
C1099       C  0.90618870  0.42747189  0.54460121    -0.02300
C1100       C  0.91015832  0.40628658  0.54613097    -0.00500
C1101       C  0.88965461  0.38125081  0.54064220    -0.04200
C1102       C  0.86497568  0.37757134  0.53435088     0.02900
C1103       C  0.87838345  0.44687815  0.53472550     0.09700
C1104       C  0.92731574  0.45311780  0.55030835     0.35600
C1105       C  0.84392846  0.35206286  0.52789651     0.39000
C1106       C  0.87320535  0.45713324  0.56023489    -0.04500
C1107       C  0.87434410  0.48111959  0.55892227     0.02600
C1108       C  0.88169875  0.49555052  0.53233015    -0.04100
C1109       C  0.88591454  0.48479211  0.50647231    -0.00300
C1110       C  0.88372920  0.46027598  0.50757892    -0.02900
C1111       C  0.86798725  0.44354368  0.58821418     0.36300
C1112       C  0.89468722  0.49976136  0.97942972     0.40000
C1113       C  0.86818066  0.49106204  0.58514286     0.39100
C1114       C  0.88808522  0.44924504  0.98107762     0.36000
C1115       C  0.83583426  0.39511811  0.52597490     0.36700
C1116       C  0.93539521  0.41030046  0.55361659     0.39900
N1117       N  0.86321772  0.49903073  0.60597662    -0.38100
N1118       N  0.86404756  0.43279120  0.61057553    -0.39700
N1119       N  0.90200025  0.51185034  0.95798267    -0.37500
N1120       N  0.89142438  0.44036626  0.95990513    -0.39800
N1121       N  0.94407398  0.47360521  0.55490725    -0.39600
N1122       N  0.95551638  0.41347093  0.55953162    -0.37200
N1123       N  0.82718157  0.33171150  0.52264950    -0.38300
N1124       N  0.81562925  0.39195773  0.52058063    -0.40000
C1125       C  0.81408465  0.59618883  0.58375310    -0.04900
C1126       C  0.79451723  0.57377416  0.59724882     0.09300
C1127       C  0.79333709  0.55008524  0.59194011    -0.02300
C1128       C  0.81228789  0.54894907  0.57453404    -0.00500
C1129       C  0.83317693  0.57166113  0.56297748    -0.04200
C1130       C  0.83341400  0.59521420  0.56672539     0.02900
C1131       C  0.77496713  0.57490889  0.61708067     0.09700
C1132       C  0.77280777  0.52689967  0.60500460     0.35600
C1133       C  0.85401695  0.61866463  0.55423327     0.39000
C1134       C  0.75172770  0.57117224  0.60512790    -0.04500
C1135       C  0.73307925  0.57176502  0.62369165     0.02600
C1136       C  0.73695384  0.57505110  0.65493592    -0.04100
C1137       C  0.76030213  0.57849698  0.66685918    -0.00300
C1138       C  0.77924806  0.57863633  0.64794466    -0.02900
C1139       C  0.74682876  0.56622375  0.57359365     0.36300
C1140       C  0.76465566  0.58098833  0.69861062     0.40000
C1141       C  0.71027279  0.56981117  0.61007413     0.39100
C1142       C  0.80309462  0.58210411  0.66018739     0.36000
C1143       C  0.81459251  0.62037177  0.58801234     0.36700
C1144       C  0.81000215  0.52420507  0.56815104     0.39900
N1145       N  0.69215523  0.56834495  0.59914944    -0.38100
N1146       N  0.74283276  0.56203824  0.54849898    -0.39700
N1147       N  0.76830678  0.58288336  0.72394211    -0.37500
N1148       N  0.82219206  0.58482028  0.66966498    -0.39800
N1149       N  0.75643199  0.50846355  0.61557050    -0.39600
N1150       N  0.80818465  0.50451643  0.56284808    -0.37200
N1151       N  0.87040969  0.63739698  0.54419600    -0.38300
N1152       N  0.81493747  0.63963671  0.59139321    -0.40000
C1153       C  0.96323505  0.60630568  0.91299282    -0.04900
C1154       C  0.98919313  0.62337424  0.92003846     0.09300
C1155       C  0.99603528  0.63148883  0.94963626    -0.02300
C1156       C  0.97715855  0.62258324  0.97209366    -0.00500
C1157       C  0.95113895  0.60469331  0.96540726    -0.04200
C1158       C  0.94427863  0.59692378  0.93550941     0.02900
C1159       C  0.00956425  0.63228330  0.89645645     0.09700
C1160       C  0.02277530  0.64845638  0.95714847     0.35600
C1161       C  0.91799755  0.57840094  0.92787311     0.39000
C1162       C  0.01935588  0.65676850  0.88351067    -0.04500
C1163       C  0.03869005  0.66520945  0.86151463     0.02600
C1164       C  0.04812545  0.64899572  0.85184869    -0.04100
C1165       C  0.03869359  0.62469086  0.86551059    -0.00300
C1166       C  0.01944640  0.61637723  0.88752480    -0.02900
C1167       C  0.00889153  0.67296251  0.89224808     0.36300
C1168       C  0.04920009  0.60834136  0.85751551     0.40000
C1169       C  0.04813662  0.69026482  0.84819846     0.39100
C1170       C  0.00950000  0.59122255  0.90082285     0.36000
C1171       C  0.95621413  0.59789856  0.88253843     0.36700
C1172       C  0.98474315  0.63220725  0.50210702     0.39900
N1173       N  0.05573859  0.71031051  0.83767355    -0.38100
N1174       N  0.00042550  0.68580629  0.89913723    -0.39700
N1175       N  0.05761525  0.59532511  0.85119906    -0.37500
N1176       N  0.00140611  0.57110369  0.91132395    -0.39800
N1177       N  0.04411343  0.66185150  0.96319576    -0.39600
N1178       N  0.99084187  0.63984939  0.52603248    -0.37200
N1179       N  0.89706147  0.56358815  0.92163690    -0.38300
N1180       N  0.95076128  0.59117040  0.85821988    -0.40000
C1181       C  0.95697108  0.61135564  0.65803042    -0.04900
C1182       C  0.97666746  0.63705945  0.65537904     0.09300
C1183       C  0.97718123  0.65170585  0.63070824    -0.02300
C1184       C  0.95972462  0.63989283  0.60712873    -0.00500
C1185       C  0.94169447  0.61336125  0.60838536    -0.04200
C1186       C  0.93938974  0.59958123  0.63472353     0.02900
C1187       C  0.99911247  0.64695045  0.67580860     0.09700
C1188       C  0.99656321  0.67860077  0.62902669     0.35600
C1189       C  0.91910655  0.57309927  0.63780581     0.39000
C1190       C  0.02057044  0.64489604  0.66710699    -0.04500
C1191       C  0.04047973  0.65059761  0.68737999     0.02600
C1192       C  0.03929904  0.65887931  0.71646364    -0.04100
C1193       C  0.01851494  0.66247500  0.72455005    -0.00300
C1194       C  0.99820501  0.65602474  0.70439586    -0.02900
C1195       C  0.02169591  0.63603994  0.63741898     0.36300
C1196       C  0.01736362  0.67172339  0.75395063     0.40000
C1197       C  0.06223510  0.64799920  0.67809837     0.39100
C1198       C  0.97589628  0.65769476  0.71336636     0.36000
C1199       C  0.95570587  0.59661120  0.68408149     0.36700
C1200       C  0.96152687  0.65471853  0.58098542     0.39900
N1201       N  0.07953115  0.64583188  0.67072770    -0.38100
N1202       N  0.02246808  0.62903516  0.61370670    -0.39700
N1203       N  0.01648068  0.67925185  0.77732541    -0.37500
N1204       N  0.95797592  0.65880065  0.72061088    -0.39800
N1205       N  0.01201148  0.70006998  0.62773170    -0.39600
N1206       N  0.96301411  0.66664551  0.56017288    -0.37200
N1207       N  0.90293874  0.55200324  0.64025200    -0.38300
N1208       N  0.95468484  0.58485028  0.70486211    -0.40000
C1209       C  0.19364516  0.74881882  0.70485211    -0.04900
C1210       C  0.19953351  0.77411279  0.71159518     0.09300
C1211       C  0.18518281  0.77812221  0.73371975    -0.02300
C1212       C  0.16487831  0.75701421  0.74863592    -0.00500
C1213       C  0.15858068  0.73159952  0.74140663    -0.04200
C1214       C  0.17325278  0.72771572  0.71943745     0.02900
C1215       C  0.22070573  0.79641626  0.69499567     0.09700
C1216       C  0.19109714  0.80404188  0.74073332     0.35600
C1217       C  0.16752518  0.70192904  0.71174207     0.39000
C1218       C  0.21505086  0.80685164  0.66998014    -0.04500
C1219       C  0.23499505  0.82714599  0.65364801     0.02600
C1220       C  0.26101289  0.83736947  0.66214193    -0.04100
C1221       C  0.26652840  0.82655167  0.68721805    -0.00300
C1222       C  0.24650698  0.80646022  0.70359132    -0.02900
C1223       C  0.18851305  0.79677704  0.66128609     0.36300
C1224       C  0.29287448  0.83539485  0.69590552     0.40000
C1225       C  0.22845809  0.83791386  0.62863134     0.39100
C1226       C  0.25240396  0.79615252  0.72962325     0.36000
C1227       C  0.20849965  0.74446336  0.68254696     0.36700
C1228       C  0.14960424  0.76147998  0.77023561     0.39900
N1229       N  0.22314037  0.84643930  0.60867123    -0.38100
N1230       N  0.16727913  0.78872695  0.65455231    -0.39700
N1231       N  0.31384015  0.84226750  0.70294048    -0.37500
N1232       N  0.25701733  0.78795746  0.75045896    -0.39800
N1233       N  0.19580336  0.82476052  0.74621479    -0.39600
N1234       N  0.13729970  0.76496869  0.78737566    -0.37200
N1235       N  0.16284343  0.68135838  0.70545979    -0.38300
N1236       N  0.22033415  0.74089311  0.66483186    -0.40000
C1237       C  0.31691547  0.97159627  0.72392036    -0.04900
C1238       C  0.33939657  0.99558499  0.72092612     0.09300
C1239       C  0.35364436  0.00203208  0.69439666    -0.02300
C1240       C  0.34715396  0.98336587  0.67224473    -0.00500
C1241       C  0.32616052  0.95848723  0.67652887    -0.04200
C1242       C  0.31029419  0.95288779  0.70167687     0.02900
C1243       C  0.35070661  0.01209294  0.74738138     0.09700
C1244       C  0.37573666  0.02743095  0.69068202     0.35600
C1245       C  0.28862669  0.92731515  0.70588469     0.39000
C1246       C  0.36610211  0.00694273  0.76656217    -0.04500
C1247       C  0.37877806  0.02347641  0.79037646     0.02600
C1248       C  0.37612577  0.04532292  0.79511277    -0.04100
C1249       C  0.35960632  0.04972178  0.77669911    -0.00300
C1250       C  0.34722965  0.03325930  0.75252045    -0.02900
C1251       C  0.36950730  0.98495923  0.76123389     0.36300
C1252       C  0.35594667  0.07153463  0.78177498     0.40000
C1253       C  0.39433134  0.01771107  0.81016205     0.39100
C1254       C  0.33167227  0.03846285  0.73219192     0.36000
C1255       C  0.30158031  0.96587297  0.75065220     0.36700
C1256       C  0.36277289  0.98932425  0.64566666     0.39900
N1257       N  0.40676191  0.01317333  0.82591338    -0.38100
N1258       N  0.37229561  0.96749042  0.75702731    -0.39700
N1259       N  0.35273556  0.08877799  0.78570479    -0.37500
N1260       N  0.31939700  0.04252233  0.71565248    -0.39800
N1261       N  0.39324558  0.04776053  0.68772328    -0.39600
N1262       N  0.37523418  0.99395795  0.62451019    -0.37200
N1263       N  0.27143390  0.90686399  0.70932259    -0.38300
N1264       N  0.28944011  0.96154486  0.77203362    -0.40000
C1265       C  0.32860785  0.97655417  0.51262417    -0.04900
C1266       C  0.35359397  0.98756874  0.50048462     0.09300
C1267       C  0.37021112  0.97892589  0.51056642    -0.02300
C1268       C  0.36238046  0.96014298  0.53308126    -0.00500
C1269       C  0.33768404  0.94964956  0.54616820    -0.04200
C1270       C  0.32081481  0.95800325  0.53563807     0.02900
C1271       C  0.36268994  0.00800535  0.97671500     0.09700
C1272       C  0.39547066  0.98928255  0.99734544     0.35600
C1273       C  0.29596402  0.94865412  0.54952029     0.39000
C1274       C  0.37964638  0.03406756  0.98381963    -0.04500
C1275       C  0.39081138  0.05278097  0.96111793     0.02600
C1276       C  0.38501469  0.04570158  0.93094650    -0.04100
C1277       C  0.36728525  0.01969558  0.92400024    -0.00300
C1278       C  0.35653895  0.00100915  0.94667053    -0.02900
C1279       C  0.38649235  0.04142253  0.51455353     0.36300
C1280       C  0.35986950  0.01196412  0.89340771     0.40000
C1281       C  0.40953241  0.07899184  0.96879027     0.39100
C1282       C  0.34005780  0.97424182  0.93894945     0.36000
C1283       C  0.31089974  0.98431798  0.50137588     0.36700
C1284       C  0.37986888  0.95140430  0.54239580     0.39900
N1285       N  0.42460354  0.09990226  0.97478891    -0.38100
N1286       N  0.39208939  0.04725870  0.53907357    -0.39700
N1287       N  0.35392368  0.00578097  0.86903115    -0.37500
N1288       N  0.32708288  0.95286414  0.93274959    -0.39800
N1289       N  0.41556139  0.99763251  0.98663917    -0.39600
N1290       N  0.39387708  0.94451107  0.54983542    -0.37200
N1291       N  0.27620573  0.94137393  0.56074691    -0.38300
N1292       N  0.29663669  0.99028458  0.49220895    -0.40000
C1293       C  0.65047649  0.03755364  0.74221418    -0.04900
C1294       C  0.63981020  0.01116064  0.74853691     0.09300
C1295       C  0.63917014  0.00341981  0.77814209    -0.02300
C1296       C  0.64815895  0.02165816  0.80141007    -0.00500
C1297       C  0.65752818  0.04811146  0.79547281    -0.04200
C1298       C  0.65922806  0.05592605  0.76549919     0.02900
C1299       C  0.62850504  0.99130453  0.72420337     0.09700
C1300       C  0.62890102  0.97639706  0.78469773     0.35600
C1301       C  0.66921629  0.08277045  0.75840690     0.39000
C1302       C  0.64261157  0.98046767  0.71186436    -0.04500
C1303       C  0.63165911  0.96134089  0.68954878     0.02600
C1304       C  0.60646453  0.95293442  0.67918252    -0.04100
C1305       C  0.59217017  0.96341464  0.69215480    -0.00300
C1306       C  0.60316261  0.98250040  0.71440640    -0.02900
C1307       C  0.66860689  0.98937424  0.72191977     0.36300
C1308       C  0.56573103  0.95397014  0.68339222     0.40000
C1309       C  0.64676734  0.95107588  0.67652726     0.39100
C1310       C  0.58829112  0.99306956  0.72740190     0.36000
C1311       C  0.65229188  0.04570017  0.71164706     0.36700
C1312       C  0.64813059  0.01295614  0.83139625     0.39900
N1313       N  0.65883190  0.94288848  0.66614432    -0.38100
N1314       N  0.68936567  0.99658314  0.73004325    -0.39700
N1315       N  0.54456170  0.94637612  0.67669163    -0.37500
N1316       N  0.57642619  0.00151066  0.73770977    -0.39800
N1317       N  0.62075721  0.95487020  0.78978741    -0.39600
N1318       N  0.64799389  0.00573943  0.85524894    -0.37200
N1319       N  0.67722022  0.10415627  0.75264409    -0.38300
N1320       N  0.65380302  0.05214534  0.68716989    -0.40000
C1321       C  0.63344436  0.96793949  0.48962174    -0.04900
C1322       C  0.65477596  0.99137982  0.49845451     0.09300
C1323       C  0.66418884  0.99435427  0.52771383    -0.02300
C1324       C  0.65039009  0.97524197  0.54903901    -0.00500
C1325       C  0.62754605  0.95276114  0.54084081    -0.04200
C1326       C  0.62009845  0.94849078  0.51063792     0.02900
C1327       C  0.66467749  0.01395434  0.97825143     0.09700
C1328       C  0.68729551  0.01770681  0.53609583     0.35600
C1329       C  0.59848145  0.92427864  0.50116689     0.39000
C1330       C  0.65810952  0.03310549  0.98385969    -0.04500
C1331       C  0.66377866  0.05236899  0.96277157     0.02600
C1332       C  0.67458549  0.05170607  0.93513508    -0.04100
C1333       C  0.68301239  0.03377246  0.93049074    -0.00300
C1334       C  0.67831896  0.01511392  0.95226440    -0.02900
C1335       C  0.64432402  0.03228976  0.51069698     0.36300
C1336       C  0.69536317  0.03359761  0.90289815     0.40000
C1337       C  0.65867486  0.07304718  0.96970550     0.39100
C1338       C  0.68659770  0.99645039  0.94751722     0.36000
C1339       C  0.62434433  0.96430275  0.45916457     0.36700
C1340       C  0.65873647  0.97979871  0.57977614     0.39900
N1341       N  0.65484523  0.08967556  0.97518975    -0.38100
N1342       N  0.63331053  0.03164043  0.53206193    -0.39700
N1343       N  0.70523960  0.03343780  0.88089929    -0.37500
N1344       N  0.69315164  0.98152599  0.94371915    -0.39800
N1345       N  0.70574712  0.03639139  0.04277412    -0.39600
N1346       N  0.66534048  0.98350156  0.60425761    -0.37200
N1347       N  0.58127148  0.90495641  0.49347027    -0.38300
N1348       N  0.61719211  0.96138824  0.43489515    -0.40000
C1349       C  0.45569305  0.86413314  0.60894577    -0.04900
C1350       C  0.45239258  0.88576138  0.61079763     0.09300
C1351       C  0.47408535  0.91054303  0.61163655    -0.02300
C1352       C  0.49894723  0.91379198  0.60978061    -0.00500
C1353       C  0.50241657  0.89213999  0.60834887    -0.04200
C1354       C  0.48062676  0.86727271  0.60795063     0.02900
C1355       C  0.42613773  0.88278107  0.61262413     0.09700
C1356       C  0.47075633  0.93274606  0.61507138     0.35600
C1357       C  0.48376647  0.84492970  0.60533857     0.39000
C1358       C  0.41611614  0.88401861  0.64043253    -0.04500
C1359       C  0.39316659  0.88498261  0.64221408     0.02600
C1360       C  0.37978243  0.88449160  0.61602986    -0.04100
C1361       C  0.38909976  0.88154318  0.58821509    -0.00300
C1362       C  0.41236532  0.88104058  0.58656971    -0.02900
C1363       C  0.43005762  0.88521675  0.66723315     0.36300
C1364       C  0.37563077  0.88032232  0.56103238     0.40000
C1365       C  0.38359860  0.88666594  0.67122941     0.39100
C1366       C  0.42283914  0.87993253  0.55794502     0.36000
C1367       C  0.43337464  0.83866173  0.60830418     0.36700
C1368       C  0.52090461  0.93956919  0.60975908     0.39900
N1369       N  0.37618195  0.88816050  0.69444184    -0.38100
N1370       N  0.44131318  0.88624105  0.68850229    -0.39700
N1371       N  0.36492663  0.87925594  0.53926477    -0.37500
N1372       N  0.43130460  0.87916988  0.53513662    -0.39800
N1373       N  0.46804802  0.95038185  0.61817051    -0.39600
N1374       N  0.53833786  0.96016358  0.60950298    -0.37200
N1375       N  0.48628451  0.82710604  0.60321802    -0.38300
N1376       N  0.41553648  0.81833735  0.60779372    -0.40000
C1377       C  0.64849625  0.66325912  0.85981452    -0.04900
C1378       C  0.63445329  0.63923302  0.84551830     0.09300
C1379       C  0.60816809  0.62350425  0.85226878    -0.02300
C1380       C  0.59631017  0.63120902  0.87393797    -0.00500
C1381       C  0.61051422  0.65499890  0.88886803    -0.04200
C1382       C  0.63656380  0.67123955  0.88112248     0.02900
C1383       C  0.64691851  0.63095622  0.82223742     0.09700
C1384       C  0.59318206  0.59946876  0.83652263     0.35600
C1385       C  0.65148347  0.69584588  0.89574626     0.39000
C1386       C  0.65339285  0.61177230  0.82834202    -0.04500
C1387       C  0.66278486  0.60234458  0.80550081     0.02600
C1388       C  0.66633467  0.61245145  0.77646527    -0.04100
C1389       C  0.66163924  0.63302341  0.77108941    -0.00300
C1390       C  0.65152283  0.64181556  0.79362400    -0.02900
C1391       C  0.65004815  0.60151785  0.85812471     0.36300
C1392       C  0.66765490  0.64561015  0.74239161     0.40000
C1393       C  0.66752047  0.58138867  0.81160833     0.39100
C1394       C  0.64519279  0.66168235  0.78717998     0.36000
C1395       C  0.67540690  0.67969390  0.85278204     0.36700
C1396       C  0.56921436  0.61482253  0.88029711     0.39900
N1397       N  0.67124341  0.56461170  0.81649097    -0.38100
N1398       N  0.64745489  0.59341326  0.88193400    -0.39700
N1399       N  0.67265547  0.65588243  0.71965085    -0.37500
N1400       N  0.64011091  0.67752848  0.78221505    -0.39800
N1401       N  0.58119034  0.58032727  0.82390822    -0.39600
N1402       N  0.54760253  0.60181489  0.88536419    -0.37200
N1403       N  0.66338615  0.71554282  0.90729091    -0.38300
N1404       N  0.69686196  0.69285506  0.84709934    -0.40000
C1405       C  0.65267045  0.64455139  0.54163073    -0.04900
C1406       C  0.66211988  0.66204324  0.56556983     0.09300
C1407       C  0.66067917  0.68477318  0.56456740    -0.02300
C1408       C  0.64778762  0.68886162  0.54094111    -0.00500
C1409       C  0.63576874  0.66985090  0.51888174    -0.04200
C1410       C  0.63921749  0.64829618  0.51848829     0.02900
C1411       C  0.66914265  0.65396132  0.59363208     0.09700
C1412       C  0.67073291  0.70292489  0.58894117     0.35600
C1413       C  0.62819089  0.62954978  0.49473191     0.39000
C1414       C  0.69226259  0.65337203  0.59585038    -0.04500
C1415       C  0.69599267  0.64032931  0.61961954     0.02600
C1416       C  0.67642539  0.62768682  0.64097498    -0.04100
C1417       C  0.65424518  0.63016623  0.63999152    -0.00300
C1418       C  0.65066050  0.64332699  0.61641694    -0.02900
C1419       C  0.71150387  0.66502769  0.57279926     0.36300
C1420       C  0.63486925  0.61888654  0.66303116     0.40000
C1421       C  0.71916488  0.63850246  0.62091020     0.39100
C1422       C  0.62729162  0.64482899  0.61478531     0.36000
C1423       C  0.65537911  0.62185285  0.54178898     0.36700
C1424       C  0.64509682  0.71156177  0.54061416     0.39900
N1425       N  0.73765348  0.63705562  0.62196406    -0.38100
N1426       N  0.72673320  0.67423288  0.55424423    -0.39700
N1427       N  0.61938759  0.60991126  0.68136391    -0.37500
N1428       N  0.60877688  0.64620668  0.61341072    -0.39800
N1429       N  0.67847357  0.71731233  0.60850420    -0.39600
N1430       N  0.64289256  0.72963541  0.04018564    -0.37200
N1431       N  0.61934264  0.61459822  0.47581677    -0.38300
N1432       N  0.65772576  0.60386205  0.54192629    -0.40000
C1433       C  0.59603519  0.81288105  0.56795897    -0.04900
C1434       C  0.57723868  0.79720205  0.54703189     0.09300
C1435       C  0.55650462  0.80131662  0.54123417    -0.02300
C1436       C  0.55498058  0.82149043  0.55545932    -0.00500
C1437       C  0.57423191  0.83784696  0.57579302    -0.04200
C1438       C  0.59455626  0.83308941  0.58233742     0.02900
C1439       C  0.57858070  0.77558608  0.53185626     0.09700
C1440       C  0.53666878  0.78465332  0.52052885     0.35600
C1441       C  0.61464540  0.84965092  0.60280619     0.39000
C1442       C  0.56636303  0.75099411  0.54469210    -0.04500
C1443       C  0.56660575  0.73026371  0.53018598     0.02600
C1444       C  0.57931383  0.73387928  0.00248469    -0.04100
C1445       C  0.59141908  0.75867021  0.98954935    -0.00300
C1446       C  0.59111305  0.77938469  0.50426775    -0.02900
C1447       C  0.55329081  0.74703057  0.57292881     0.36300
C1448       C  0.60467342  0.76320198  0.96138939     0.40000
C1449       C  0.55288782  0.70502345  0.54363332     0.39100
C1450       C  0.60383109  0.80475427  0.99112366     0.36000
C1451       C  0.61706663  0.80830239  0.57440054     0.36700
C1452       C  0.53326098  0.82508309  0.54934493     0.39900
N1453       N  0.54193033  0.68492024  0.55441091    -0.38100
N1454       N  0.54288122  0.74394725  0.59543999    -0.39700
N1455       N  0.61520174  0.76690522  0.93886524    -0.37500
N1456       N  0.61402953  0.82501517  0.98067694    -0.39800
N1457       N  0.52086100  0.77128346  0.50404756    -0.39600
N1458       N  0.51591400  0.82787452  0.54432630    -0.37200
N1459       N  0.63069828  0.86288547  0.61912206    -0.38300
N1460       N  0.63381172  0.80456670  0.57946970    -0.40000
C1461       C  0.36496040  0.36865590  0.62960855    -0.04900
C1462       C  0.37025336  0.36713722  0.59944207     0.09300
C1463       C  0.38552076  0.35619927  0.59162484    -0.02300
C1464       C  0.39582544  0.34724185  0.61381490    -0.00500
C1465       C  0.39136224  0.34958945  0.64424517    -0.04200
C1466       C  0.37546240  0.36005444  0.65189827     0.02900
C1467       C  0.36080547  0.37821188  0.57590172     0.09700
C1468       C  0.39104445  0.35469915  0.56059087     0.35600
C1469       C  0.36935097  0.36163157  0.68272857     0.39000
C1470       C  0.37656207  0.40374634  0.56650131    -0.04500
C1471       C  0.36850466  0.41399691  0.54341983     0.02600
C1472       C  0.34456920  0.39874279  0.52914186    -0.04100
C1473       C  0.32844680  0.37330989  0.53920063    -0.00300
C1474       C  0.33646133  0.36323339  0.56268206    -0.02900
C1475       C  0.40126408  0.41950682  0.58060001     0.36300
C1476       C  0.30423800  0.35695076  0.02443912     0.40000
C1477       C  0.38496837  0.44047600  0.53461668     0.39100
C1478       C  0.31977583  0.33735061  0.57323165     0.36000
C1479       C  0.34880224  0.37934505  0.63767604     0.36700
C1480       C  0.41175073  0.33645283  0.60515792     0.39900
N1481       N  0.39823873  0.46157081  0.52759783    -0.38100
N1482       N  0.42096700  0.43210234  0.59183408    -0.39700
N1483       N  0.28497034  0.34375311  0.01261294    -0.37500
N1484       N  0.30648925  0.31677279  0.58191610    -0.39800
N1485       N  0.39544578  0.35364556  0.53578890    -0.39600
N1486       N  0.42438327  0.32776017  0.59820223    -0.37200
N1487       N  0.36445254  0.36297875  0.70727744    -0.38300
N1488       N  0.33584604  0.38781383  0.64403708    -0.40000
C1489       C  0.34335518  0.32689241  0.80579021    -0.04900
C1490       C  0.35699221  0.34065144  0.83116846     0.09300
C1491       C  0.38303209  0.34782001  0.83440681    -0.02300
C1492       C  0.39604505  0.34337384  0.81121101    -0.00500
C1493       C  0.38301768  0.33157197  0.78452119    -0.04200
C1494       C  0.35629439  0.32236305  0.78242867     0.02900
C1495       C  0.34575696  0.35203491  0.85163684     0.09700
C1496       C  0.39680275  0.36109237  0.86108078     0.35600
C1497       C  0.34237167  0.30994766  0.75552363     0.39000
C1498       C  0.33737388  0.34206146  0.88036593    -0.04500
C1499       C  0.33145581  0.35596564  0.90119249     0.02600
C1500       C  0.33357308  0.37967324  0.89306394    -0.04100
C1501       C  0.33958469  0.38826367  0.86344616    -0.00300
C1502       C  0.34625287  0.37483962  0.84303579    -0.02900
C1503       C  0.33573213  0.31800359  0.88872260     0.36300
C1504       C  0.33855535  0.41076720  0.85377142     0.40000
C1505       C  0.32453935  0.34653210  0.93130170     0.39100
C1506       C  0.35496214  0.38521588  0.81353099     0.36000
C1507       C  0.31627471  0.31862430  0.80320032     0.36700
C1508       C  0.42306445  0.35158105  0.81477365     0.39900
N1509       N  0.31902656  0.33905678  0.95534916    -0.38100
N1510       N  0.33434598  0.29877912  0.89547443    -0.39700
N1511       N  0.33748946  0.42856837  0.84602591    -0.37500
N1512       N  0.36209103  0.39344907  0.79004399    -0.39800
N1513       N  0.40770712  0.37162549  0.88239855    -0.39600
N1514       N  0.44464848  0.35831726  0.81759349    -0.37200
N1515       N  0.33123439  0.30012034  0.73404103    -0.38300
N1516       N  0.29467047  0.31207038  0.80120864    -0.40000
C1517       C  0.45879066  0.60124379  0.96735360    -0.04900
C1518       C  0.45317878  0.57555592  0.96460763     0.09300
C1519       C  0.47342572  0.57008641  0.96269839    -0.02300
C1520       C  0.49911419  0.59008908  0.96365583    -0.00500
C1521       C  0.50483472  0.61587537  0.96585123    -0.04200
C1522       C  0.48458696  0.62140337  0.96781946     0.02900
C1523       C  0.42605548  0.55383466  0.96348043     0.09700
C1524       C  0.46773577  0.54373768  0.95939042     0.35600
C1525       C  0.49032388  0.64771185  0.97155646     0.39000
C1526       C  0.41410295  0.54428924  0.93583483    -0.04500
C1527       C  0.39106147  0.52056103  0.93417876     0.02600
C1528       C  0.38002790  0.50595213  0.96016459    -0.04100
C1529       C  0.39060948  0.51690818  0.98811736    -0.00300
C1530       C  0.41368868  0.54069480  0.98969407    -0.02900
C1531       C  0.42634897  0.55827251  0.90894548     0.36300
C1532       C  0.37876468  0.50316074  0.51524271     0.40000
C1533       C  0.37878774  0.51113236  0.90562051     0.39100
C1534       C  0.42561762  0.55101518  0.51818453     0.36000
C1535       C  0.43801086  0.60683366  0.96984554     0.36700
C1536       C  0.51968421  0.58407629  0.96170299     0.39900
N1537       N  0.36893148  0.50368358  0.88285359    -0.38100
N1538       N  0.43624265  0.56943395  0.88753695    -0.39700
N1539       N  0.36931680  0.49229874  0.53696243    -0.37500
N1540       N  0.43527603  0.55932115  0.54083865    -0.39800
N1541       N  0.46312939  0.52271732  0.95662240    -0.39600
N1542       N  0.53611617  0.57932439  0.96028327    -0.37200
N1543       N  0.49500686  0.66872652  0.97470607    -0.38300
N1544       N  0.42141085  0.61128797  0.97190227    -0.40000
C1545       C  0.01594806  0.34632386  0.69324338    -0.04900
C1546       C  0.00670306  0.36086653  0.67850968     0.09300
C1547       C  0.01796387  0.38732769  0.68467843    -0.02300
C1548       C  0.03748149  0.39893233  0.70626134    -0.00500
C1549       C  0.04651009  0.38435390  0.72140168    -0.04200
C1550       C  0.03620354  0.35814444  0.71407237     0.02900
C1551       C  0.98675046  0.34903209  0.65448180     0.09700
C1552       C  0.00976762  0.40273983  0.66827106     0.35600
C1553       C  0.04623844  0.34323714  0.72804844     0.39000
C1554       C  0.96084871  0.34182623  0.65990983    -0.04500
C1555       C  0.94274294  0.33289544  0.63639077     0.02600
C1556       C  0.95053090  0.33153271  0.60705949    -0.04100
C1557       C  0.97643312  0.33809550  0.60203692    -0.00300
C1558       C  0.99434654  0.34687909  0.62553433    -0.02900
C1559       C  0.95318205  0.34488258  0.68947406     0.36300
C1560       C  0.98502449  0.33624767  0.57249826     0.40000
C1561       C  0.91654946  0.32672696  0.64220155     0.39100
C1562       C  0.02109965  0.35509901  0.61966733     0.36000
C1563       C  0.00439498  0.31911105  0.68711798     0.36700
C1564       C  0.04900543  0.42622007  0.71211217     0.39900
N1565       N  0.89566687  0.32186996  0.64691935    -0.38100
N1566       N  0.94718105  0.34760189  0.71301668    -0.39700
N1567       N  0.99206818  0.33502179  0.54896568    -0.37500
N1568       N  0.04249607  0.36188057  0.61511817    -0.39800
N1569       N  0.00328323  0.41499914  0.65500560    -0.39600
N1570       N  0.05836053  0.44798626  0.71681390    -0.37200
N1571       N  0.05446561  0.33138189  0.73883616    -0.38300
N1572       N  0.99508289  0.29736280  0.68233605    -0.40000
C1573       C  0.96430316  0.33324891  0.91366746    -0.04900
C1574       C  0.98241434  0.32513004  0.91770300     0.09300
C1575       C  0.98093456  0.31057771  0.94283513    -0.02300
C1576       C  0.96311676  0.30655487  0.96555096    -0.00500
C1577       C  0.94717832  0.31765890  0.96327661    -0.04200
C1578       C  0.94681915  0.32968556  0.93640957     0.02900
C1579       C  0.00554841  0.33634161  0.89835543     0.09700
C1580       C  0.99851516  0.30074695  0.94571253     0.35600
C1581       C  0.92866549  0.33871246  0.93210506     0.39000
C1582       C  0.02672462  0.36008235  0.90665116    -0.04500
C1583       C  0.04595649  0.37448786  0.88586441     0.02600
C1584       C  0.04399720  0.36527032  0.85656910    -0.04100
C1585       C  0.02428789  0.34025707  0.84925142    -0.00300
C1586       C  0.00497319  0.32582486  0.87019768    -0.02900
C1587       C  0.02795296  0.37035169  0.93616951     0.36300
C1588       C  0.02286451  0.32995498  0.81976138     0.40000
C1589       C  0.06763747  0.39898896  0.89460052     0.39100
C1590       C  0.98393858  0.30070498  0.86243170     0.36000
C1591       C  0.96456553  0.34643203  0.88658111     0.36700
C1592       C  0.96220931  0.29210390  0.99167726     0.39900
N1593       N  0.08498433  0.41851030  0.90140186    -0.38100
N1594       N  0.02890011  0.37852759  0.95969735    -0.39700
N1595       N  0.02165158  0.32160001  0.79628293    -0.37500
N1596       N  0.96724289  0.28062097  0.85611621    -0.39800
N1597       N  0.01252746  0.29285874  0.94786960    -0.39600
N1598       N  0.96140061  0.28037861  0.51240091    -0.37200
N1599       N  0.91424789  0.34597621  0.92872632    -0.38300
N1600       N  0.96476620  0.35681556  0.86489607    -0.40000
C1601       C  0.12582455  0.58349471  0.81242404    -0.04900
C1602       C  0.12461942  0.56973371  0.78650670     0.09300
C1603       C  0.12347894  0.57954633  0.75853951    -0.02300
C1604       C  0.12164721  0.60199689  0.75653720    -0.00500
C1605       C  0.12032740  0.61453626  0.78261534    -0.04200
C1606       C  0.12368771  0.60584202  0.81057192     0.02900
C1607       C  0.12067758  0.54314353  0.78875823     0.09700
C1608       C  0.12269332  0.56565171  0.73183083     0.35600
C1609       C  0.12321039  0.61867467  0.83765806     0.39000
C1610       C  0.09560084  0.52242153  0.79264419    -0.04500
C1611       C  0.09114778  0.49710239  0.79382781     0.02600
C1612       C  0.11182951  0.49217921  0.79107502    -0.04100
C1613       C  0.13702621  0.51305006  0.78734141    -0.00300
C1614       C  0.14140415  0.53846440  0.78623918    -0.02900
C1615       C  0.07427646  0.52727504  0.79519616     0.36300
C1616       C  0.15856557  0.50852857  0.78579764     0.40000
C1617       C  0.06501618  0.47611907  0.79705931     0.39100
C1618       C  0.16720987  0.55989375  0.78283077     0.36000
C1619       C  0.12781962  0.57374604  0.84112386     0.36700
C1620       C  0.12067273  0.61185588  0.72747576     0.39900
N1621       N  0.04416237  0.45945046  0.79970929    -0.38100
N1622       N  0.05741408  0.53133853  0.79724377    -0.39700
N1623       N  0.17574726  0.50488837  0.78468712    -0.37500
N1624       N  0.18777744  0.57708655  0.78018443    -0.39800
N1625       N  0.12194427  0.55451661  0.71052448    -0.39600
N1626       N  0.11983010  0.61966568  0.70429797    -0.37200
N1627       N  0.12281814  0.62882794  0.85934482    -0.38300
N1628       N  0.12935889  0.56588584  0.86399091    -0.40000
C1629       C  0.20209719  0.42833359  0.83694546    -0.04900
C1630       C  0.19776220  0.41650791  0.86505704     0.09300
C1631       C  0.17256029  0.40270098  0.87622093    -0.02300
C1632       C  0.15196065  0.40167464  0.86006259    -0.00500
C1633       C  0.15638790  0.41455817  0.83249711    -0.04200
C1634       C  0.18144386  0.42714382  0.82055742     0.02900
C1635       C  0.21968122  0.41834216  0.88295854     0.09700
C1636       C  0.16791379  0.38964411  0.90452137     0.35600
C1637       C  0.18614254  0.43956861  0.79188133     0.39000
C1638       C  0.23261801  0.43847130  0.90363501    -0.04500
C1639       C  0.25331458  0.44020094  0.92043788     0.02600
C1640       C  0.26113651  0.42176746  0.91665954    -0.04100
C1641       C  0.24769467  0.40124786  0.89655341    -0.00300
C1642       C  0.22706413  0.39955120  0.87979182    -0.02900
C1643       C  0.22470632  0.45751359  0.90732031     0.36300
C1644       C  0.25488338  0.38159284  0.89345781     0.40000
C1645       C  0.26713764  0.46142907  0.94078045     0.39100
C1646       C  0.21338839  0.37848653  0.85917514     0.36000
C1647       C  0.22794507  0.44216918  0.82518784     0.36700
C1648       C  0.12605550  0.38663312  0.87153418     0.39900
N1649       N  0.27819399  0.47840028  0.95699299    -0.38100
N1650       N  0.21827388  0.47263416  0.91016255    -0.39700
N1651       N  0.26056079  0.36586764  0.89114701    -0.37500
N1652       N  0.20240173  0.36169834  0.84271755    -0.39800
N1653       N  0.16430484  0.37923451  0.92708183    -0.39600
N1654       N  0.10543069  0.37447555  0.88068632    -0.37200
N1655       N  0.18975644  0.44934002  0.76890587    -0.38300
N1656       N  0.24859358  0.45328404  0.81583185    -0.40000
loop_ 
_geom_bond_atom_site_label_1 
_geom_bond_atom_site_label_2 
_geom_bond_distance 
_geom_bond_site_symmetry_2 
_ccdc_geom_bond_type 
In1           O3   2.247       .  S
In1           O4   2.206       .  S
In1          O12   2.220       .  S
In1           O6   2.279       .  S
In1           O8   2.282       .  S
In1           O9   2.225       .  S
In1          O10   2.227       .  S
In1          O13   2.273       .  S
C2            O8   1.266       .  A
C2           O10   1.257       .  A
C2          C721   1.492       .  S
O3           C11   1.262       .  A
O4           C11   1.261       .  A
C5           O12   1.257       .  A
C5            O6   1.268       .  A
C5          C805   1.492       .  S
C7            O9   1.259       .  A
C7           O13   1.266       .  A
C7          C784   1.492       .  S
C11         C756   1.477       .  S
In14         O16   2.249       .  S
In14         O17   2.221       .  S
In14         O25   2.231       .  S
In14         O19   2.284       .  S
In14         O21   2.285       .  S
In14         O22   2.237       .  S
In14         O23   2.236       .  S
In14         O26   2.273       .  S
C15          O21   1.266       .  A
C15          O23   1.259       .  A
C15        C1472   1.500       .  S
O16          C24   1.263       .  A
O17          C24   1.263       .  A
C18          O25   1.256       .  A
C18          O19   1.266       .  A
C18         C812   1.486       .  S
C20          O22   1.259       .  A
C20          O26   1.263       .  A
C20         C700   1.494       .  S
C24         C672   1.482       .  S
In27         O29   2.241       .  S
In27         O30   2.215       .  S
In27         O38   2.225       .  S
In27         O32   2.279       .  S
In27         O34   2.278       .  S
In27         O35   2.230       .  S
In27         O36   2.232       .  S
In27         O39   2.259       .  S
C28          O34   1.266       .  A
C28          O36   1.257       .  A
C28         C553   1.496       .  S
O29         C865   1.262       .  A
O30         C865   1.261       .  A
C31          O38   1.259       .  A
C31          O32   1.268       .  A
C31         C616   1.503       .  S
C33          O35   1.260       .  A
C33          O39   1.264       .  A
C33         C693   1.485       .  S
C37         O857   1.262       .  A
C37         O858   1.261       .  A
C37         C581   1.472   1_556  S
In40         O42   2.251       .  S
In40         O43   2.218       .  S
In40         O51   2.232       .  S
In40         O45   2.283       .  S
In40         O47   2.287       .  S
In40         O48   2.224       .  S
In40         O49   2.239       .  S
In40         O52   2.266       .  S
C41          O47   1.267       .  A
C41          O49   1.258       .  A
C41         C476   1.499       .  S
O42          C50   1.262       .  A
O43          C50   1.258       .  A
C44          O51   1.257       .  A
C44          O45   1.267       .  A
C44         C609   1.497       .  S
C46          O48   1.258       .  A
C46          O52   1.265       .  A
C46         C525   1.489       .  S
C50         C497   1.482       .  S
In53         O55   2.243       .  S
In53         O56   2.201       .  S
In53         O64   2.242       .  S
In53         O58   2.297       .  S
In53         O60   2.304       .  S
In53         O61   2.221       .  S
In53         O62   2.234       .  S
In53         O65   2.269       .  S
C54          O60   1.270       .  A
C54          O62   1.257       .  A
C54         C441   1.507       .  S
O55          C63   1.262       .  A
O56          C63   1.259       .  A
C57          O64   1.258       .  A
C57          O58   1.270       .  A
C57         C392   1.511       .  S
C59          O61   1.259       .  A
C59          O65   1.267       .  A
C59         C532   1.497       .  S
C63         C413   1.464       .  S
In66         O68   2.253       .  S
In66         O69   2.219       .  S
In66         O77   2.232       .  S
In66         O71   2.286       .  S
In66         O73   2.277       .  S
In66         O74   2.222       .  S
In66         O75   2.232       .  S
In66         O78   2.266       .  S
C67          O73   1.266       .  A
C67          O75   1.258       .  A
C67         C336   1.497       .  S
O68          C76   1.263       .  A
O69          C76   1.260       .  A
C70          O77   1.257       .  A
C70          O71   1.267       .  A
C70         C385   1.500       .  S
C72          O74   1.259       .  A
C72          O78   1.264       .  A
C72         C777   1.493       .  S
C76         C364   1.484       .  S
In79         O81   2.259       .  S
In79         O82   2.211       .  S
In79         O90   2.228       .  S
In79         O84   2.281       .  S
In79         O86   2.285   1_554  S
In79         O87   2.221       .  S
In79         O88   2.228       .  S
In79         O91   2.272       .  S
C80         O914   1.265       .  A
C80         O916   1.257       .  A
C80         C329   1.500       .  S
O81          C89   1.263       .  A
O82          C89   1.259       .  A
C83          O90   1.257       .  A
C83          O84   1.264       .  A
C83         C301   1.496       .  S
C85          O87   1.257       .  A
C85          O91   1.265       .  A
C85         C280   1.488       .  S
O86         C908   1.265       .  A
O88         C908   1.257   1_554  A
C89         C357   1.483       .  S
In92         O94   2.247       .  S
In92         O95   2.214       .  S
In92        O103   2.220       .  S
In92         O97   2.292       .  S
In92         O99   2.304       .  S
In92        O100   2.216       .  S
In92        O101   2.223       .  S
In92        O104   2.273       .  S
C93          O99   1.270       .  A
C93         O101   1.255       .  A
C93         C560   1.499       .  S
O94         C102   1.263       .  A
O95         C102   1.262       .  A
C96         O103   1.258       .  A
C96          O97   1.269       .  A
C96         C308   1.505       .  S
C98         O100   1.259       .  A
C98         O104   1.266       .  A
C98         C245   1.486       .  S
C102        C588   1.478       .  S
In105       O107   2.247       .  S
In105       O108   2.205       .  S
In105       O116   2.234       .  S
In105       O110   2.290       .  S
In105       O112   2.300       .  S
In105       O113   2.222       .  S
In105       O114   2.237       .  S
In105       O117   2.273       .  S
C106        O112   1.268       .  A
C106        O114   1.256       .  A
C106        C469   1.508       .  S
O107        C115   1.263       .  A
O108        C115   1.261       .  A
C109        O116   1.257       .  A
C109        O110   1.268       .  A
C109        C217   1.509       .  S
C111        O113   1.258       .  A
C111        O117   1.265       .  A
C111        C189   1.488       .  S
C115        C504   1.481       .  S
In118       O120   2.254       .  S
In118       O123   2.282       .  S
In118       O125   2.300       .  S
In118       O126   2.226       .  S
In118       O127   2.226       .  S
In118       O130   2.265       .  S
In118       O949   2.209   1_554  S
In118       O957   2.222   1_554  S
C119        O125   1.267       .  A
C119        O127   1.256       .  A
C119        C728   1.502       .  S
O120        C956   1.265   1_554  A
O121       In946   2.209       .  S
O121        C128   1.262       .  A
C122        O123   1.269       .  A
C122        O957   1.258   1_554  A
C122       C1052   1.510   1_554  S
C124        O126   1.258       .  A
C124        O130   1.263       .  A
C124        C273   1.485       .  S
C128        O948   1.265       .  A
C128        C749   1.487       .  S
O129       In946   2.222       .  S
O129        C950   1.258       .  A
In131       O133   2.254       .  S
In131       O134   2.220       .  S
In131       O142   2.232       .  S
In131       O136   2.276       .  S
In131       O138   2.285       .  S
In131       O139   2.222       .  S
In131       O140   2.240       .  S
In131       O143   2.275       .  S
C132        O138   1.266       .  A
C132        O140   1.257       .  A
C132        C637   1.503       .  S
O133        C141   1.262       .  A
O134        C141   1.260       .  A
C135        O142   1.258       .  A
C135        O136   1.265       .  A
C135        C168   1.494       .  S
C137        O139   1.258       .  A
C137        O143   1.265       .  A
C137        C252   1.491       .  S
C141        C665   1.488       .  S
In144       O146   2.243       .  S
In144       O147   2.201       .  S
In144       O155   2.226       .  S
In144       O149   2.276       .  S
In144       O151   2.292       .  S
In144       O152   2.220       .  S
In144       O153   2.235       .  S
In144       O156   2.270       .  S
C145        O151   1.268       .  A
C145        O153   1.257       .  A
C145        C448   1.504       .  S
O146        C154   1.262       .  A
O147        C154   1.261       .  A
C148        O155   1.257       .  A
C148        O149   1.267       .  A
C148        C161   1.496       .  S
C150        O152   1.258       .  A
C150        O156   1.266       .  A
C150        C196   1.487       .  S
C154        C420   1.476       .  S
C157        C158   1.409       .  A
C157        C162   1.411       .  A
C157        C175   1.451       .  S
C158        C163   1.502       .  S
C158        C159   1.413       .  A
C159        C160   1.415       .  A
C159        C164   1.449       .  S
C160        C161   1.414       .  A
C160        C176   1.450       .  S
C161        C162   1.421       .  A
C162        C165   1.452       .  S
C163        C166   1.412       .  A
C163        C170   1.410       .  A
C164        N181   1.157       .  T
C165        N183   1.158       .  T
C166        C167   1.415       .  A
C166        C171   1.450       .  S
C167        C168   1.417       .  A
C167        C173   1.450       .  S
C168        C169   1.416       .  A
C169        C170   1.412       .  A
C169        C172   1.451       .  S
C170        C174   1.451       .  S
C171        N178   1.157       .  T
C172        N179   1.157       .  T
C173        N177   1.157       .  T
C174        N180   1.157       .  T
C175        N184   1.157       .  T
C176        N182   1.157       .  T
C185        C186   1.410       .  A
C185        C190   1.408       .  A
C185        C203   1.452       .  S
C186        C191   1.497       .  S
C186        C187   1.411       .  A
C187        C188   1.415       .  A
C187        C192   1.449       .  S
C188        C189   1.415       .  A
C188        C204   1.450       .  S
C189        C190   1.415       .  A
C190        C193   1.452       .  S
C191        C194   1.412       .  A
C191        C198   1.409       .  A
C192        N209   1.157       .  T
C193        N211   1.157       .  T
C194        C195   1.413       .  A
C194        C199   1.450       .  S
C195        C196   1.413       .  A
C195        C201   1.450       .  S
C196        C197   1.417       .  A
C197        C198   1.410       .  A
C197        C200   1.452       .  S
C198        C202   1.451       .  S
C199        N206   1.157       .  T
C200        N207   1.157       .  T
C201        N205   1.157       .  T
C202        N208   1.157       .  T
C203        N212   1.157       .  T
C204        N210   1.157       .  T
C213        C214   1.413       .  A
C213        C218   1.420       .  A
C213        C231   1.450       .  S
C214        C219   1.510       .  S
C214        C215   1.410       .  A
C215        C216   1.413       .  A
C215        C220   1.452       .  S
C216        C217   1.423       .  A
C216        C232   1.451       .  S
C217        C218   1.421       .  A
C218        C221   1.450       .  S
C219        C222   1.411       .  A
C219        C226   1.412       .  A
C220       N1065   1.157       .  T
C221        N239   1.158       .  T
C222        C223   1.414       .  A
C222        C227   1.452       .  S
C223        C224   1.425       .  A
C223        C229   1.453       .  S
C224        C950   1.510       .  S
C224        C225   1.420       .  A
C225        C226   1.418       .  A
C225       C1056   1.450       .  S
C226        C230   1.450       .  S
C227        N234   1.158       .  T
C228       C1053   1.450   1_554  S
C228        N235   1.158       .  T
C229        N233   1.157       .  T
C230        N236   1.157       .  T
C231        N240   1.157       .  T
C232        N238   1.157       .  T
N237       C1048   1.157       .  T
C241        C242   1.410       .  A
C241        C246   1.407       .  A
C241        C259   1.452       .  S
C242        C247   1.498       .  S
C242        C243   1.412       .  A
C243        C244   1.416       .  A
C243        C248   1.449       .  S
C244        C245   1.415       .  A
C244        C260   1.450       .  S
C245        C246   1.414       .  A
C246        C249   1.452       .  S
C247        C250   1.412       .  A
C247        C254   1.408       .  A
C248        N265   1.157       .  T
C249        N267   1.157       .  T
C250        C251   1.415       .  A
C250        C255   1.450       .  S
C251        C252   1.415       .  A
C251        C257   1.450       .  S
C252        C253   1.418       .  A
C253        C254   1.409       .  A
C253        C256   1.451       .  S
C254        C258   1.451       .  S
C255        N262   1.157       .  T
C256        N263   1.157       .  T
C257        N261   1.157       .  T
C258        N264   1.157       .  T
C259        N268   1.157       .  T
C260        N266   1.157       .  T
C269        C270   1.411       .  A
C269        C274   1.414       .  A
C269        C287   1.449       .  S
C270        C275   1.497       .  S
C270        C271   1.411       .  A
C271        C272   1.408       .  A
C271        C276   1.451       .  S
C272        C273   1.414       .  A
C272        C288   1.452       .  S
C273        C274   1.415       .  A
C274        C277   1.451       .  S
C275        C278   1.409       .  A
C275        C282   1.412       .  A
C276        N293   1.157       .  T
C277        N295   1.157       .  T
C278        C279   1.410       .  A
C278        C283   1.451       .  S
C279        C280   1.416       .  A
C279        C285   1.451       .  S
C280        C281   1.414       .  A
C281        C282   1.413       .  A
C281       C1112   1.451   1_554  S
C282       C1114   1.450   1_554  S
C283        N290   1.157       .  T
C284       C1109   1.451       .  S
C284        N291   1.158       .  T
C285        N289   1.157       .  T
C286       C1110   1.450       .  S
C286        N292   1.157       .  T
C287        N296   1.157       .  T
C288        N294   1.157       .  T
C297        C298   1.412       .  A
C297        C302   1.416       .  A
C297        C315   1.450       .  S
C298        C303   1.503       .  S
C298        C299   1.409       .  A
C299        C300   1.411       .  A
C299        C304   1.450       .  S
C300        C301   1.417       .  A
C300        C316   1.452       .  S
C301        C302   1.418       .  A
C302        C305   1.450       .  S
C303        C306   1.407       .  A
C303        C310   1.412       .  A
C304        N321   1.157       .  T
C305        N323   1.158       .  T
C306        C307   1.412       .  A
C306        C311   1.452       .  S
C307        C308   1.425       .  A
C307        C313   1.452       .  S
C308        C309   1.418       .  A
C309        C310   1.418       .  A
C309        C312   1.449       .  S
C310        C314   1.450       .  S
C311        N318   1.157       .  T
C312        N319   1.157       .  T
C313        N317   1.158       .  T
C314        N320   1.157       .  T
C315        N324   1.157       .  T
C316        N322   1.157       .  T
C325        C326   1.412       .  A
C325        C330   1.416       .  A
C325        C343   1.450       .  S
C326        C331   1.504   1_655  S
C326        C327   1.409       .  A
C327        C328   1.412       .  A
C327        C332   1.451   1_655  S
C328        C329   1.421       .  A
C328       C1172   1.452       .  S
C329        C330   1.418       .  A
C330        C333   1.450       .  S
C331        C334   1.412       .  A
C331        C338   1.410       .  A
C332        N349   1.157       .  T
C333        N351   1.157       .  T
C334        C335   1.415       .  A
C334        C339   1.450       .  S
C335        C336   1.417       .  A
C335        C341   1.450       .  S
C336        C337   1.419       .  A
C337        C338   1.413       .  A
C337        C340   1.452       .  S
C338        C342   1.451       .  S
C339        N346   1.157       .  T
C340        N347   1.158       .  T
C341        N345   1.157       .  T
C342        N348   1.157       .  T
C343        N352   1.157       .  T
C344       C1156   1.452   1_554  S
C344        N350   1.157       .  T
C353        C354   1.408       .  A
C353        C358   1.406       .  A
C353        C371   1.451       .  S
C354        C359   1.491       .  S
C354        C355   1.410       .  A
C355        C356   1.411       .  A
C355        C360   1.450       .  S
C356        C357   1.415       .  A
C356        C372   1.450       .  S
C357        C358   1.415       .  A
C358        C361   1.452       .  S
C359        C362   1.410   1_655  A
C359        C366   1.410       .  A
C360        N377   1.157   1_655  T
C361        N379   1.157       .  T
C362        C363   1.406       .  A
C362        C367   1.453       .  S
C363        C364   1.415       .  A
C363        C369   1.452       .  S
C364        C365   1.416       .  A
C365        C366   1.412   1_455  A
C365        C368   1.451       .  S
C366        C370   1.450       .  S
C367        N374   1.157       .  T
C368        N375   1.157       .  T
C369        N373   1.158       .  T
C370        N376   1.158       .  T
C371        N380   1.157       .  T
C372        N378   1.158       .  T
C381        C382   1.411       .  A
C381        C386   1.414       .  A
C381        C399   1.451       .  S
C382        C387   1.510       .  S
C382        C383   1.414       .  A
C383        C384   1.419       .  A
C383        C388   1.449       .  S
C384        C385   1.416       .  A
C384        C400   1.450       .  S
C385        C386   1.419       .  A
C386        C389   1.452       .  S
C387        C390   1.412       .  A
C387        C394   1.409       .  A
C388        N405   1.157       .  T
C389        N407   1.158       .  T
C390        C391   1.419       .  A
C390        C395   1.450       .  S
C391        C392   1.419       .  A
C391        C397   1.449       .  S
C392        C393   1.424       .  A
C393        C394   1.417       .  A
C393        C396   1.451       .  S
C394        C398   1.452       .  S
C395        N402   1.157       .  T
C396        N403   1.158       .  T
C397        N401   1.157       .  T
C398        N404   1.157       .  T
C399        N408   1.157       .  T
C400        N406   1.157       .  T
C409        C410   1.409       .  A
C409        C414   1.407       .  A
C409        C427   1.450       .  S
C410        C415   1.481   1_565  S
C410        C411   1.408   1_565  A
C411        C412   1.403   1_545  A
C411        C416   1.451       .  S
C412        C413   1.410       .  A
C412        C428   1.452       .  S
C413        C414   1.410       .  A
C414        C417   1.450       .  S
C415        C418   1.409       .  A
C415        C422   1.406       .  A
C416        N433   1.157       .  T
C417        N435   1.157       .  T
C418        C419   1.401       .  A
C418        C423   1.453   1_545  S
C419        C420   1.414       .  A
C419        C425   1.453       .  S
C420        C421   1.416       .  A
C421        C422   1.409       .  A
C421        C424   1.450       .  S
C422        C426   1.450       .  S
C423        N430   1.157       .  T
C424        N431   1.157       .  T
C425        N429   1.158       .  T
C426        N432   1.157       .  T
C427        N436   1.157       .  T
C428        N434   1.157       .  T
C437        C438   1.415       .  A
C437        C442   1.422       .  A
C437        C455   1.449       .  S
C438       C1271   1.514   1_564  S
C438        C439   1.410       .  A
C439        C440   1.414       .  A
C439       C1272   1.451   1_554  S
C440        C441   1.420       .  A
C440        C456   1.451       .  S
C441        C442   1.418       .  A
C442        C445   1.450       .  S
C443       C1266   1.514   1_545  S
C443        C446   1.416       .  A
C443        C450   1.411       .  A
C444       C1267   1.451       .  S
C444        N461   1.157       .  T
C445        N463   1.157       .  T
C446        C447   1.419       .  A
C446       C1279   1.449       .  S
C447        C448   1.415       .  A
C447        C453   1.450       .  S
C448        C449   1.421       .  A
C449        C450   1.416       .  A
C449        C452   1.452       .  S
C450        C454   1.450   1_545  S
C451       C1274   1.449   1_554  S
C451        N458   1.157       .  T
C452        N459   1.157       .  T
C453        N457   1.157       .  T
C454        N460   1.157       .  T
C455        N464   1.157   1_554  T
C456        N462   1.157       .  T
C465        C466   1.414       .  A
C465        C470   1.420       .  A
C465        C483   1.449       .  S
C466        C471   1.509   1_545  S
C466        C467   1.408       .  A
C467        C468   1.414       .  A
C467        C472   1.453   1_545  S
C468        C469   1.424       .  A
C468        C484   1.450       .  S
C469        C470   1.418       .  A
C470        C473   1.450       .  S
C471        C474   1.413       .  A
C471        C478   1.411       .  A
C472        N489   1.156       .  T
C473        N491   1.156       .  T
C474        C475   1.418       .  A
C474        C479   1.449       .  S
C475        C476   1.416       .  A
C475        C481   1.450       .  S
C476        C477   1.418       .  A
C477        C478   1.414       .  A
C477        C480   1.451       .  S
C478        C482   1.451       .  S
C479        N486   1.158       .  T
C480        N487   1.157       .  T
C481        N485   1.157       .  T
C482        N488   1.157   1_565  T
C483        N492   1.158       .  T
C484        N490   1.159       .  T
C493        C494   1.410       .  A
C493        C498   1.406   1_556  A
C493        C511   1.453       .  S
C494       C1327   1.492   1_565  S
C494        C495   1.411   1_556  A
C495        C496   1.409       .  A
C495        C500   1.449   1_565  S
C496        C497   1.414       .  A
C496        C512   1.452       .  S
C497        C498   1.416       .  A
C498        C501   1.451       .  S
C499       C1322   1.492   1_545  S
C499        C502   1.412       .  A
C499        C506   1.411       .  A
C500       N1345   1.158       .  T
C501        N519   1.159   1_554  T
C502        C503   1.404       .  A
C502       C1335   1.452       .  S
C503        C504   1.414       .  A
C503        C509   1.453       .  S
C504        C505   1.415       .  A
C505        C506   1.410       .  A
C505        C508   1.450       .  S
C506        C510   1.450   1_545  S
C507       C1330   1.452   1_554  S
C507        N514   1.157       .  T
C508        N515   1.157       .  T
C509        N513   1.157       .  T
C510        N516   1.157       .  T
C511        N520   1.156       .  T
C512        N518   1.156       .  T
N517       C1328   1.158       .  T
C521        C522   1.411       .  A
C521        C526   1.414       .  A
C521        C539   1.449       .  S
C522        C527   1.498       .  S
C522        C523   1.410       .  A
C523        C524   1.409       .  A
C523        C528   1.452       .  S
C524        C525   1.417       .  A
C524        C540   1.452       .  S
C525        C526   1.415       .  A
C526        C529   1.450       .  S
C527        C530   1.408       .  A
C527        C534   1.410       .  A
C528        N545   1.157       .  T
C529        N547   1.157       .  T
C530        C531   1.410       .  A
C530        C535   1.452       .  S
C531        C532   1.421       .  A
C531        C537   1.451       .  S
C532        C533   1.419       .  A
C533        C534   1.415       .  A
C533        C536   1.450       .  S
C534        C538   1.451       .  S
C535        N542   1.157       .  T
C536        N543   1.158       .  T
C537        N541   1.157       .  T
C538        N544   1.157       .  T
C539        N548   1.157       .  T
C540        N546   1.158       .  T
C549        C550   1.413       .  A
C549        C554   1.416       .  A
C549        C567   1.450       .  S
C550        C555   1.508       .  S
C550        C551   1.413       .  A
C551        C552   1.414       .  A
C551        C556   1.451       .  S
C552        C553   1.417       .  A
C552        C568   1.452       .  S
C553        C554   1.416       .  A
C554        C557   1.450       .  S
C555        C558   1.415       .  A
C555        C562   1.410       .  A
C556        N573   1.157       .  T
C557        N575   1.157       .  T
C558        C559   1.419       .  A
C558        C563   1.450       .  S
C559        C560   1.414       .  A
C559        C565   1.449       .  S
C560        C561   1.419       .  A
C561        C562   1.413       .  A
C561        C564   1.452       .  S
C562        C566   1.451       .  S
C563        N570   1.157       .  T
C564        N571   1.157       .  T
C565        N569   1.157       .  T
C566        N572   1.157       .  T
C567        N576   1.157       .  T
C568        N574   1.158       .  T
C577        C578   1.412       .  A
C577        C582   1.405       .  A
C577        C595   1.452       .  S
C578        C583   1.490       .  S
C578        C579   1.411       .  A
C579        C580   1.409       .  A
C579        C584   1.450       .  S
C580        C581   1.411       .  A
C580        C596   1.451       .  S
C581        C582   1.410       .  A
C582        C585   1.452   1_554  S
C583        C586   1.410       .  A
C583        C590   1.411       .  A
C584        N601   1.157       .  T
C585        N603   1.157       .  T
C586        C587   1.411       .  A
C586        C591   1.450       .  S
C587        C588   1.414       .  A
C587        C593   1.451       .  S
C588        C589   1.413       .  A
C589        C590   1.405       .  A
C589        C592   1.452       .  S
C590        C594   1.453       .  S
C591        N598   1.157       .  T
C592        N599   1.158       .  T
C593        N597   1.157       .  T
C594        N600   1.157       .  T
C595        N604   1.157       .  T
C596       N1430   1.158       .  T
N602       C1424   1.158       .  T
C605        C606   1.412       .  A
C605        C610   1.416       .  A
C605        C623   1.450       .  S
C606        C611   1.504       .  S
C606        C607   1.410       .  A
C607        C608   1.413       .  A
C607        C612   1.451       .  S
C608        C609   1.418       .  A
C608        C624   1.451       .  S
C609        C610   1.417       .  A
C610        C613   1.450       .  S
C611        C614   1.408       .  A
C611        C618   1.412       .  A
C612        N629   1.157       .  T
C613        N631   1.157       .  T
C614        C615   1.412       .  A
C614        C619   1.451       .  S
C615       C1444   1.422       .  A
C615        C621   1.452       .  S
C616        C617   1.419       .  A
C616       C1443   1.422       .  A
C617       C1446   1.417       .  A
C617        C620   1.450       .  S
C618       C1445   1.417   1_554  A
C618       C1450   1.450   1_554  S
C619        N626   1.157       .  T
C620        N627   1.158       .  T
C621        N625   1.157       .  T
C622       C1446   1.450       .  S
C622        N628   1.157       .  T
C623        N632   1.157       .  T
C624        N630   1.157       .  T
C633        C634   1.409       .  A
C633        C638   1.415       .  A
C633        C651   1.451       .  S
C634        C639   1.507       .  S
C634        C635   1.412       .  A
C635        C636   1.417       .  A
C635        C640   1.450       .  S
C636        C637   1.417       .  A
C636        C652   1.450       .  S
C637        C638   1.422       .  A
C638        C641   1.452       .  S
C639        C642   1.410       .  A
C639        C646   1.412       .  A
C640        N657   1.157       .  T
C641        N659   1.158       .  T
C642        C643   1.413       .  A
C642        C647   1.451       .  S
C643        C644   1.418       .  A
C643        C649   1.451       .  S
C644        C843   1.500       .  S
C644        C645   1.418       .  A
C645        C646   1.418       .  A
C645       C1476   1.450       .  S
C646        C650   1.450       .  S
C647        N654   1.157       .  T
C648       C1473   1.450       .  S
C648        N655   1.157       .  T
C649        N653   1.157       .  T
C650        N656   1.157       .  T
C651        N660   1.157       .  T
C652        N658   1.157       .  T
C661        C662   1.410       .  A
C661        C666   1.412       .  A
C661        C679   1.450       .  S
C662        C667   1.493       .  S
C662        C663   1.408       .  A
C663        C664   1.407       .  A
C663        C668   1.452       .  S
C664        C665   1.417       .  A
C664        C680   1.452       .  S
C665        C666   1.417       .  A
C666        C669   1.451       .  S
C667        C670   1.411       .  A
C667        C674   1.411       .  A
C668        N685   1.157       .  T
C669        N687   1.158       .  T
C670        C671   1.413       .  A
C670        C675   1.450       .  S
C671        C672   1.415       .  A
C671        C677   1.450       .  S
C672        C673   1.413       .  A
C673        C674   1.405       .  A
C673        C676   1.452       .  S
C674        C678   1.452       .  S
C675        N682   1.157       .  T
C676        N683   1.157       .  T
C677        N681   1.157       .  T
C678        N684   1.157       .  T
C679        N688   1.157       .  T
C680        N686   1.157       .  T
C689        C690   1.412       .  A
C689        C694   1.415       .  A
C689        C707   1.449       .  S
C690        C695   1.499       .  S
C690        C691   1.411       .  A
C691        C692   1.408       .  A
C691        C696   1.451       .  S
C692        C693   1.414       .  A
C692        C708   1.452       .  S
C693        C694   1.414       .  A
C694        C697   1.450       .  S
C695        C698   1.409       .  A
C695        C702   1.411       .  A
C696        N713   1.157       .  T
C697        N715   1.157       .  T
C698        C699   1.411       .  A
C698        C703   1.450       .  S
C699        C700   1.416       .  A
C699        C705   1.451       .  S
C700        C701   1.417       .  A
C701        C702   1.414       .  A
C701       C1532   1.450       .  S
C702       C1534   1.450       .  S
C703        N710   1.157       .  T
C704       C1529   1.450   1_554  S
C704        N711   1.157       .  T
C705        N709   1.157       .  T
C706       C1530   1.450   1_554  S
C706        N712   1.157       .  T
C707        N716   1.157       .  T
C708        N714   1.157       .  T
C717        C718   1.414       .  A
C717        C722   1.416       .  A
C717        C735   1.450       .  S
C718        C723   1.506   1_455  S
C718        C719   1.411       .  A
C719        C720   1.412       .  A
C719        C724   1.450       .  S
C720        C721   1.415       .  A
C720        C736   1.452       .  S
C721        C722   1.415       .  A
C722        C725   1.450       .  S
C723        C726   1.414       .  A
C723        C730   1.409       .  A
C724        N741   1.157       .  T
C725        N743   1.157       .  T
C726        C727   1.419       .  A
C726        C731   1.450       .  S
C727        C728   1.418       .  A
C727        C733   1.450       .  S
C728        C729   1.420       .  A
C729        C730   1.412       .  A
C729        C732   1.451       .  S
C730        C734   1.452   1_655  S
C731        N738   1.157       .  T
C732        N739   1.157       .  T
C733        N737   1.157       .  T
C734        N740   1.157       .  T
C735        N744   1.157   1_455  T
C736        N742   1.157       .  T
C745        C746   1.408       .  A
C745        C750   1.405       .  A
C745        C763   1.452       .  S
C746        C751   1.488   1_655  S
C746        C747   1.408       .  A
C747        C748   1.412       .  A
C747        C752   1.450       .  S
C748        C749   1.417       .  A
C748        C764   1.449       .  S
C749        C750   1.417       .  A
C750        C753   1.452       .  S
C751        C754   1.410       .  A
C751        C758   1.409       .  A
C752        N769   1.157   1_655  T
C753        N771   1.157       .  T
C754        C755   1.403       .  A
C754        C759   1.452       .  S
C755        C756   1.413       .  A
C755        C761   1.453       .  S
C756        C757   1.414       .  A
C757        C758   1.411       .  A
C757        C760   1.450       .  S
C758        C762   1.449   1_455  S
C759        N766   1.157       .  T
C760        N767   1.157       .  T
C761        N765   1.157       .  T
C762        N768   1.157       .  T
C763        N772   1.157       .  T
C764       N1598   1.157       .  T
N770       C1592   1.157   1_554  T
C773        C774   1.411       .  A
C773        C778   1.413       .  A
C773        C791   1.450       .  S
C774        C779   1.498       .  S
C774        C775   1.409       .  A
C775        C776   1.410       .  A
C775        C780   1.451       .  S
C776        C777   1.418       .  A
C776        C792   1.452       .  S
C777        C778   1.417       .  A
C778        C781   1.450       .  S
C779        C782   1.409       .  A
C779        C786   1.410       .  A
C780        N797   1.157       .  T
C781        N799   1.158       .  T
C782        C783   1.409       .  A
C782        C787   1.452       .  S
C783        C784   1.418       .  A
C783        C789   1.452       .  S
C784        C785   1.416       .  A
C785        C786   1.416       .  A
C785        C788   1.450       .  S
C786        C790   1.449       .  S
C787        N794   1.157       .  T
C788        N795   1.157       .  T
C789        N793   1.157       .  T
C790        N796   1.157       .  T
C791        N800   1.157       .  T
C792        N798   1.157       .  T
C801        C802   1.413       .  A
C801        C806   1.415       .  A
C801        C819   1.449       .  S
C802        C807   1.501       .  S
C802        C803   1.409       .  A
C803        C804   1.411       .  A
C803        C808   1.451       .  S
C804        C805   1.418       .  A
C804        C820   1.452       .  S
C805        C806   1.413       .  A
C806        C809   1.450       .  S
C807        C810   1.413       .  A
C807        C814   1.410       .  A
C808        N825   1.157       .  T
C809        N827   1.157       .  T
C810        C811   1.415       .  A
C810        C815   1.450       .  S
C811        C812   1.412       .  A
C811        C817   1.449       .  S
C812        C813   1.414       .  A
C813        C814   1.412       .  A
C813        C816   1.451       .  S
C814        C818   1.450       .  S
C815        N822   1.157       .  T
C816        N823   1.157       .  T
C817        N821   1.157       .  T
C818        N824   1.157       .  T
C819        N828   1.157       .  T
C820        N826   1.157       .  T
In829       O831   2.247       .  S
In829       O832   2.206       .  S
In829       O840   2.220       .  S
In829       O834   2.279       .  S
In829       O836   2.282       .  S
In829       O837   2.225       .  S
In829       O838   2.227       .  S
In829       O841   2.273       .  S
C830        O836   1.266       .  A
C830        O838   1.257       .  A
C830       C1549   1.492       .  S
O831        C839   1.262       .  A
O832        C839   1.261       .  A
C833        O840   1.257       .  A
C833        O834   1.268       .  A
C833       C1633   1.492       .  S
C835        O837   1.259       .  A
C835        O841   1.266       .  A
C835       C1612   1.492       .  S
C839       C1584   1.477       .  S
In842       O844   2.249       .  S
In842       O845   2.221       .  S
In842       O853   2.231       .  S
In842       O847   2.284       .  S
In842       O849   2.285       .  S
In842       O850   2.237       .  S
In842       O851   2.236       .  S
In842       O854   2.273       .  S
C843        O849   1.266   1_554  A
C843        O851   1.259   1_554  A
O844        C852   1.263       .  A
O845        C852   1.263       .  A
C846        O853   1.256       .  A
C846        O847   1.266       .  A
C846       C1640   1.486       .  S
C848        O850   1.259       .  A
C848        O854   1.263       .  A
C848       C1528   1.494       .  S
C852       C1500   1.482       .  S
In855       O857   2.241       .  S
In855       O858   2.215       .  S
In855       O866   2.225   1_556  S
In855       O860   2.279       .  S
In855       O862   2.278       .  S
In855       O863   2.230       .  S
In855       O864   2.232       .  S
In855       O867   2.259       .  S
C856        O862   1.266       .  A
C856        O864   1.257       .  A
C856       C1381   1.496       .  S
C859        O866   1.259   1_556  A
C859        O860   1.268       .  A
C859       C1444   1.503   1_556  S
C861        O863   1.260       .  A
C861        O867   1.264       .  A
C861       C1521   1.485       .  S
C865       C1409   1.472       .  S
In868       O870   2.251       .  S
In868       O871   2.218       .  S
In868       O879   2.232       .  S
In868       O873   2.283       .  S
In868       O875   2.287       .  S
In868       O876   2.224       .  S
In868       O877   2.239       .  S
In868       O880   2.266       .  S
C869        O875   1.267       .  A
C869        O877   1.258       .  A
C869       C1304   1.499       .  S
O870        C878   1.262       .  A
O871        C878   1.258       .  A
C872        O879   1.257       .  A
C872        O873   1.267       .  A
C872       C1437   1.497       .  S
C874        O876   1.258       .  A
C874        O880   1.265       .  A
C874       C1353   1.489       .  S
C878       C1325   1.482       .  S
In881       O883   2.243       .  S
In881       O884   2.201       .  S
In881       O892   2.242       .  S
In881       O886   2.297       .  S
In881       O888   2.304       .  S
In881       O889   2.221       .  S
In881       O890   2.234       .  S
In881       O893   2.269       .  S
C882        O888   1.270       .  A
C882        O890   1.257       .  A
C882       C1269   1.507       .  S
O883        C891   1.262       .  A
O884        C891   1.259       .  A
C885        O892   1.258       .  A
C885        O886   1.270       .  A
C885       C1220   1.511       .  S
C887        O889   1.259       .  A
C887        O893   1.267       .  A
C887       C1360   1.497       .  S
C891       C1241   1.464       .  S
In894       O896   2.253       .  S
In894       O897   2.219       .  S
In894       O905   2.232       .  S
In894       O899   2.286       .  S
In894       O901   2.277       .  S
In894       O902   2.222       .  S
In894       O903   2.232       .  S
In894       O906   2.266       .  S
C895        O901   1.266       .  A
C895        O903   1.258       .  A
C895       C1164   1.497       .  S
O896        C904   1.263       .  A
O897        C904   1.260       .  A
C898        O905   1.257       .  A
C898        O899   1.267       .  A
C898       C1213   1.500       .  S
C900        O902   1.259       .  A
C900        O906   1.264       .  A
C900       C1605   1.493       .  S
C904       C1192   1.484       .  S
In907       O909   2.259       .  S
In907       O910   2.211       .  S
In907       O918   2.228       .  S
In907       O912   2.281       .  S
In907       O914   2.285       .  S
In907       O915   2.221       .  S
In907       O916   2.228       .  S
In907       O919   2.272       .  S
C908       C1157   1.500       .  S
O909        C917   1.263       .  A
O910        C917   1.259       .  A
C911        O918   1.257       .  A
C911        O912   1.264       .  A
C911       C1129   1.496       .  S
C913        O915   1.257       .  A
C913        O919   1.265       .  A
C913       C1108   1.488       .  S
C917       C1185   1.483       .  S
In920       O922   2.247       .  S
In920       O923   2.214       .  S
In920       O931   2.220       .  S
In920       O925   2.292       .  S
In920       O927   2.304       .  S
In920       O928   2.216       .  S
In920       O929   2.223       .  S
In920       O932   2.273       .  S
C921        O927   1.270       .  A
C921        O929   1.255       .  A
C921       C1388   1.499       .  S
O922        C930   1.263       .  A
O923        C930   1.262       .  A
C924        O931   1.258       .  A
C924        O925   1.269       .  A
C924       C1136   1.505       .  S
C926        O928   1.259       .  A
C926        O932   1.266       .  A
C926       C1073   1.486       .  S
C930       C1416   1.478       .  S
In933       O935   2.247       .  S
In933       O936   2.205       .  S
In933       O944   2.234       .  S
In933       O938   2.290       .  S
In933       O940   2.300       .  S
In933       O941   2.222       .  S
In933       O942   2.237       .  S
In933       O945   2.273       .  S
C934        O940   1.268       .  A
C934        O942   1.256       .  A
C934       C1297   1.508       .  S
O935        C943   1.263       .  A
O936        C943   1.261       .  A
C937        O944   1.257       .  A
C937        O938   1.268       .  A
C937       C1045   1.509       .  S
C939        O941   1.258       .  A
C939        O945   1.265       .  A
C939       C1017   1.488       .  S
C943       C1332   1.481       .  S
In946       O948   2.254       .  S
In946       O951   2.282       .  S
In946       O953   2.300       .  S
In946       O954   2.226       .  S
In946       O955   2.226       .  S
In946       O958   2.265       .  S
C947        O953   1.267       .  A
C947        O955   1.256       .  A
C947       C1556   1.502       .  S
O949        C956   1.262       .  A
C950        O951   1.269       .  A
C952        O954   1.258       .  A
C952        O958   1.263       .  A
C952       C1101   1.485       .  S
C956       C1577   1.487       .  S
In959       O961   2.254       .  S
In959       O962   2.220       .  S
In959       O970   2.232       .  S
In959       O964   2.276       .  S
In959       O966   2.285       .  S
In959       O967   2.222       .  S
In959       O968   2.240       .  S
In959       O971   2.275       .  S
C960        O966   1.266       .  A
C960        O968   1.257       .  A
C960       C1465   1.503       .  S
O961        C969   1.262       .  A
O962        C969   1.260       .  A
C963        O970   1.258       .  A
C963        O964   1.265       .  A
C963        C996   1.494       .  S
C965        O967   1.258       .  A
C965        O971   1.265       .  A
C965       C1080   1.491       .  S
C969       C1493   1.488       .  S
In972       O974   2.243       .  S
In972       O975   2.201       .  S
In972       O983   2.226       .  S
In972       O977   2.276       .  S
In972       O979   2.292       .  S
In972       O980   2.220       .  S
In972       O981   2.235       .  S
In972       O984   2.270       .  S
C973        O979   1.268       .  A
C973        O981   1.257       .  A
C973       C1276   1.504       .  S
O974        C982   1.262       .  A
O975        C982   1.261       .  A
C976        O983   1.257       .  A
C976        O977   1.267       .  A
C976        C989   1.496       .  S
C978        O980   1.258       .  A
C978        O984   1.266       .  A
C978       C1024   1.487       .  S
C982       C1248   1.476       .  S
C985        C986   1.409       .  A
C985        C990   1.411       .  A
C985       C1003   1.451       .  S
C986        C991   1.502       .  S
C986        C987   1.413       .  A
C987        C988   1.415       .  A
C987        C992   1.449       .  S
C988        C989   1.414       .  A
C988       C1004   1.450       .  S
C989        C990   1.421       .  A
C990        C993   1.452       .  S
C991        C994   1.412       .  A
C991        C998   1.410       .  A
C992       N1009   1.157       .  T
C993       N1011   1.158       .  T
C994        C995   1.415       .  A
C994        C999   1.450       .  S
C995        C996   1.417       .  A
C995       C1001   1.450       .  S
C996        C997   1.416       .  A
C997        C998   1.412       .  A
C997       C1000   1.451       .  S
C998       C1002   1.451       .  S
C999       N1006   1.157       .  T
C1000      N1007   1.157       .  T
C1001      N1005   1.157       .  T
C1002      N1008   1.157       .  T
C1003      N1012   1.157       .  T
C1004      N1010   1.157       .  T
C1013      C1014   1.410       .  A
C1013      C1018   1.408       .  A
C1013      C1031   1.452       .  S
C1014      C1019   1.497       .  S
C1014      C1015   1.411       .  A
C1015      C1016   1.415       .  A
C1015      C1020   1.449       .  S
C1016      C1017   1.415       .  A
C1016      C1032   1.450       .  S
C1017      C1018   1.415       .  A
C1018      C1021   1.452       .  S
C1019      C1022   1.412       .  A
C1019      C1026   1.409       .  A
C1020      N1037   1.157       .  T
C1021      N1039   1.157       .  T
C1022      C1023   1.413       .  A
C1022      C1027   1.450       .  S
C1023      C1024   1.413       .  A
C1023      C1029   1.450       .  S
C1024      C1025   1.417       .  A
C1025      C1026   1.410       .  A
C1025      C1028   1.452       .  S
C1026      C1030   1.451       .  S
C1027      N1034   1.157       .  T
C1028      N1035   1.157       .  T
C1029      N1033   1.157       .  T
C1030      N1036   1.157       .  T
C1031      N1040   1.157       .  T
C1032      N1038   1.157       .  T
C1041      C1042   1.413       .  A
C1041      C1046   1.420       .  A
C1041      C1059   1.450       .  S
C1042      C1047   1.510       .  S
C1042      C1043   1.410       .  A
C1043      C1044   1.413       .  A
C1043      C1048   1.452       .  S
C1044      C1045   1.423       .  A
C1044      C1060   1.451       .  S
C1045      C1046   1.421       .  A
C1046      C1049   1.450       .  S
C1047      C1050   1.411       .  A
C1047      C1054   1.412       .  A
C1049      N1067   1.158       .  T
C1050      C1051   1.414       .  A
C1050      C1055   1.452       .  S
C1051      C1052   1.425       .  A
C1051      C1057   1.453       .  S
C1052      C1053   1.420       .  A
C1053      C1054   1.418       .  A
C1054      C1058   1.450       .  S
C1055      N1062   1.158       .  T
C1056      N1063   1.158       .  T
C1057      N1061   1.157       .  T
C1058      N1064   1.157       .  T
C1059      N1068   1.157       .  T
C1060      N1066   1.157       .  T
C1069      C1070   1.410       .  A
C1069      C1074   1.407       .  A
C1069      C1087   1.452       .  S
C1070      C1075   1.498       .  S
C1070      C1071   1.412       .  A
C1071      C1072   1.416       .  A
C1071      C1076   1.449       .  S
C1072      C1073   1.415       .  A
C1072      C1088   1.450       .  S
C1073      C1074   1.414       .  A
C1074      C1077   1.452       .  S
C1075      C1078   1.412       .  A
C1075      C1082   1.408       .  A
C1076      N1093   1.157       .  T
C1077      N1095   1.157       .  T
C1078      C1079   1.415       .  A
C1078      C1083   1.450       .  S
C1079      C1080   1.415       .  A
C1079      C1085   1.450       .  S
C1080      C1081   1.418       .  A
C1081      C1082   1.409       .  A
C1081      C1084   1.451       .  S
C1082      C1086   1.451       .  S
C1083      N1090   1.157       .  T
C1084      N1091   1.157       .  T
C1085      N1089   1.157       .  T
C1086      N1092   1.157       .  T
C1087      N1096   1.157       .  T
C1088      N1094   1.157       .  T
C1097      C1098   1.411       .  A
C1097      C1102   1.414       .  A
C1097      C1115   1.449       .  S
C1098      C1103   1.497       .  S
C1098      C1099   1.411       .  A
C1099      C1100   1.408       .  A
C1099      C1104   1.451       .  S
C1100      C1101   1.414       .  A
C1100      C1116   1.452       .  S
C1101      C1102   1.415       .  A
C1102      C1105   1.451       .  S
C1103      C1106   1.409       .  A
C1103      C1110   1.412       .  A
C1104      N1121   1.157       .  T
C1105      N1123   1.157       .  T
C1106      C1107   1.410       .  A
C1106      C1111   1.451       .  S
C1107      C1108   1.416       .  A
C1107      C1113   1.451       .  S
C1108      C1109   1.414       .  A
C1109      C1110   1.413       .  A
C1111      N1118   1.157       .  T
C1112      N1119   1.158       .  T
C1113      N1117   1.157       .  T
C1114      N1120   1.157       .  T
C1115      N1124   1.157       .  T
C1116      N1122   1.157       .  T
C1125      C1126   1.412       .  A
C1125      C1130   1.416       .  A
C1125      C1143   1.450       .  S
C1126      C1131   1.503       .  S
C1126      C1127   1.409       .  A
C1127      C1128   1.411       .  A
C1127      C1132   1.450       .  S
C1128      C1129   1.417       .  A
C1128      C1144   1.452       .  S
C1129      C1130   1.418       .  A
C1130      C1133   1.450       .  S
C1131      C1134   1.407       .  A
C1131      C1138   1.412       .  A
C1132      N1149   1.157       .  T
C1133      N1151   1.158       .  T
C1134      C1135   1.412       .  A
C1134      C1139   1.452       .  S
C1135      C1136   1.425       .  A
C1135      C1141   1.452       .  S
C1136      C1137   1.418       .  A
C1137      C1138   1.418       .  A
C1137      C1140   1.449       .  S
C1138      C1142   1.450       .  S
C1139      N1146   1.157       .  T
C1140      N1147   1.157       .  T
C1141      N1145   1.158       .  T
C1142      N1148   1.157       .  T
C1143      N1152   1.157       .  T
C1144      N1150   1.157       .  T
C1153      C1154   1.412       .  A
C1153      C1158   1.416       .  A
C1153      C1171   1.450       .  S
C1154      C1159   1.504   1_655  S
C1154      C1155   1.409       .  A
C1155      C1156   1.412       .  A
C1155      C1160   1.451   1_655  S
C1156      C1157   1.421       .  A
C1157      C1158   1.418       .  A
C1158      C1161   1.450       .  S
C1159      C1162   1.412       .  A
C1159      C1166   1.410       .  A
C1160      N1177   1.157       .  T
C1161      N1179   1.157       .  T
C1162      C1163   1.415       .  A
C1162      C1167   1.450       .  S
C1163      C1164   1.417       .  A
C1163      C1169   1.450       .  S
C1164      C1165   1.419       .  A
C1165      C1166   1.413       .  A
C1165      C1168   1.452       .  S
C1166      C1170   1.451       .  S
C1167      N1174   1.157       .  T
C1168      N1175   1.158       .  T
C1169      N1173   1.157       .  T
C1170      N1176   1.157       .  T
C1171      N1180   1.157       .  T
C1172      N1178   1.157       .  T
C1181      C1182   1.408       .  A
C1181      C1186   1.406       .  A
C1181      C1199   1.451       .  S
C1182      C1187   1.491       .  S
C1182      C1183   1.410       .  A
C1183      C1184   1.411       .  A
C1183      C1188   1.450       .  S
C1184      C1185   1.415       .  A
C1184      C1200   1.450       .  S
C1185      C1186   1.415       .  A
C1186      C1189   1.452       .  S
C1187      C1190   1.410   1_655  A
C1187      C1194   1.410       .  A
C1188      N1205   1.157   1_655  T
C1189      N1207   1.157       .  T
C1190      C1191   1.406       .  A
C1190      C1195   1.453       .  S
C1191      C1192   1.415       .  A
C1191      C1197   1.452       .  S
C1192      C1193   1.416       .  A
C1193      C1194   1.412   1_455  A
C1193      C1196   1.451       .  S
C1194      C1198   1.450       .  S
C1195      N1202   1.157       .  T
C1196      N1203   1.157       .  T
C1197      N1201   1.158       .  T
C1198      N1204   1.158       .  T
C1199      N1208   1.157       .  T
C1200      N1206   1.158       .  T
C1209      C1210   1.411       .  A
C1209      C1214   1.414       .  A
C1209      C1227   1.451       .  S
C1210      C1215   1.510       .  S
C1210      C1211   1.414       .  A
C1211      C1212   1.419       .  A
C1211      C1216   1.449       .  S
C1212      C1213   1.416       .  A
C1212      C1228   1.450       .  S
C1213      C1214   1.419       .  A
C1214      C1217   1.452       .  S
C1215      C1218   1.412       .  A
C1215      C1222   1.409       .  A
C1216      N1233   1.157       .  T
C1217      N1235   1.158       .  T
C1218      C1219   1.419       .  A
C1218      C1223   1.450       .  S
C1219      C1220   1.419       .  A
C1219      C1225   1.449       .  S
C1220      C1221   1.424       .  A
C1221      C1222   1.417       .  A
C1221      C1224   1.451       .  S
C1222      C1226   1.452       .  S
C1223      N1230   1.157       .  T
C1224      N1231   1.158       .  T
C1225      N1229   1.157       .  T
C1226      N1232   1.157       .  T
C1227      N1236   1.157       .  T
C1228      N1234   1.157       .  T
C1237      C1238   1.409       .  A
C1237      C1242   1.407       .  A
C1237      C1255   1.450       .  S
C1238      C1243   1.481   1_565  S
C1238      C1239   1.408   1_565  A
C1239      C1240   1.403   1_545  A
C1239      C1244   1.451       .  S
C1240      C1241   1.410       .  A
C1240      C1256   1.452       .  S
C1241      C1242   1.410       .  A
C1242      C1245   1.450       .  S
C1243      C1246   1.409       .  A
C1243      C1250   1.406       .  A
C1244      N1261   1.157       .  T
C1245      N1263   1.157       .  T
C1246      C1247   1.401       .  A
C1246      C1251   1.453   1_545  S
C1247      C1248   1.414       .  A
C1247      C1253   1.453       .  S
C1248      C1249   1.416       .  A
C1249      C1250   1.409       .  A
C1249      C1252   1.450       .  S
C1250      C1254   1.450       .  S
C1251      N1258   1.157       .  T
C1252      N1259   1.157       .  T
C1253      N1257   1.158       .  T
C1254      N1260   1.157       .  T
C1255      N1264   1.157       .  T
C1256      N1262   1.157       .  T
C1265      C1266   1.415       .  A
C1265      C1270   1.422       .  A
C1265      C1283   1.449       .  S
C1266      C1267   1.410       .  A
C1267      C1268   1.414       .  A
C1268      C1269   1.420       .  A
C1268      C1284   1.451       .  S
C1269      C1270   1.418       .  A
C1270      C1273   1.450       .  S
C1271      C1274   1.416       .  A
C1271      C1278   1.411       .  A
C1272      N1289   1.157       .  T
C1273      N1291   1.157       .  T
C1274      C1275   1.419       .  A
C1275      C1276   1.415       .  A
C1275      C1281   1.450       .  S
C1276      C1277   1.421       .  A
C1277      C1278   1.416       .  A
C1277      C1280   1.452       .  S
C1278      C1282   1.450   1_545  S
C1279      N1286   1.157       .  T
C1280      N1287   1.157       .  T
C1281      N1285   1.157       .  T
C1282      N1288   1.157       .  T
C1283      N1292   1.157       .  T
C1284      N1290   1.157       .  T
C1293      C1294   1.414       .  A
C1293      C1298   1.420       .  A
C1293      C1311   1.449       .  S
C1294      C1299   1.509   1_545  S
C1294      C1295   1.408       .  A
C1295      C1296   1.414       .  A
C1295      C1300   1.453   1_545  S
C1296      C1297   1.424       .  A
C1296      C1312   1.450       .  S
C1297      C1298   1.418       .  A
C1298      C1301   1.450       .  S
C1299      C1302   1.413       .  A
C1299      C1306   1.411       .  A
C1300      N1317   1.156       .  T
C1301      N1319   1.156       .  T
C1302      C1303   1.418       .  A
C1302      C1307   1.449       .  S
C1303      C1304   1.416       .  A
C1303      C1309   1.450       .  S
C1304      C1305   1.418       .  A
C1305      C1306   1.414       .  A
C1305      C1308   1.451       .  S
C1306      C1310   1.451       .  S
C1307      N1314   1.158       .  T
C1308      N1315   1.157       .  T
C1309      N1313   1.157       .  T
C1310      N1316   1.157   1_565  T
C1311      N1320   1.158       .  T
C1312      N1318   1.158       .  T
C1321      C1322   1.410       .  A
C1321      C1326   1.406       .  A
C1321      C1339   1.453       .  S
C1322      C1323   1.411       .  A
C1323      C1324   1.409       .  A
C1323      C1328   1.449   1_565  S
C1324      C1325   1.414       .  A
C1324      C1340   1.452       .  S
C1325      C1326   1.416       .  A
C1326      C1329   1.451       .  S
C1327      C1330   1.412       .  A
C1327      C1334   1.411       .  A
C1329      N1347   1.159       .  T
C1330      C1331   1.404       .  A
C1331      C1332   1.414       .  A
C1331      C1337   1.453       .  S
C1332      C1333   1.415       .  A
C1333      C1334   1.410       .  A
C1333      C1336   1.450       .  S
C1334      C1338   1.450   1_545  S
C1335      N1342   1.157       .  T
C1336      N1343   1.157       .  T
C1337      N1341   1.157       .  T
C1338      N1344   1.157       .  T
C1339      N1348   1.156       .  T
C1340      N1346   1.156       .  T
C1349      C1350   1.411       .  A
C1349      C1354   1.414       .  A
C1349      C1367   1.449       .  S
C1350      C1355   1.498       .  S
C1350      C1351   1.410       .  A
C1351      C1352   1.409       .  A
C1351      C1356   1.452       .  S
C1352      C1353   1.417       .  A
C1352      C1368   1.452       .  S
C1353      C1354   1.415       .  A
C1354      C1357   1.450       .  S
C1355      C1358   1.408       .  A
C1355      C1362   1.410       .  A
C1356      N1373   1.157       .  T
C1357      N1375   1.157       .  T
C1358      C1359   1.410       .  A
C1358      C1363   1.452       .  S
C1359      C1360   1.421       .  A
C1359      C1365   1.451       .  S
C1360      C1361   1.419       .  A
C1361      C1362   1.415       .  A
C1361      C1364   1.450       .  S
C1362      C1366   1.451       .  S
C1363      N1370   1.157       .  T
C1364      N1371   1.158       .  T
C1365      N1369   1.157       .  T
C1366      N1372   1.157       .  T
C1367      N1376   1.157       .  T
C1368      N1374   1.158       .  T
C1377      C1378   1.413       .  A
C1377      C1382   1.416       .  A
C1377      C1395   1.450       .  S
C1378      C1383   1.508       .  S
C1378      C1379   1.413       .  A
C1379      C1380   1.414       .  A
C1379      C1384   1.451       .  S
C1380      C1381   1.417       .  A
C1380      C1396   1.452       .  S
C1381      C1382   1.416       .  A
C1382      C1385   1.450       .  S
C1383      C1386   1.415       .  A
C1383      C1390   1.410       .  A
C1384      N1401   1.157       .  T
C1385      N1403   1.157       .  T
C1386      C1387   1.419       .  A
C1386      C1391   1.450       .  S
C1387      C1388   1.414       .  A
C1387      C1393   1.449       .  S
C1388      C1389   1.419       .  A
C1389      C1390   1.413       .  A
C1389      C1392   1.452       .  S
C1390      C1394   1.451       .  S
C1391      N1398   1.157       .  T
C1392      N1399   1.157       .  T
C1393      N1397   1.157       .  T
C1394      N1400   1.157       .  T
C1395      N1404   1.157       .  T
C1396      N1402   1.158       .  T
C1405      C1406   1.412       .  A
C1405      C1410   1.405       .  A
C1405      C1423   1.452       .  S
C1406      C1411   1.490       .  S
C1406      C1407   1.411       .  A
C1407      C1408   1.409       .  A
C1407      C1412   1.450       .  S
C1408      C1409   1.411       .  A
C1408      C1424   1.451       .  S
C1409      C1410   1.410       .  A
C1410      C1413   1.452       .  S
C1411      C1414   1.410       .  A
C1411      C1418   1.411       .  A
C1412      N1429   1.157       .  T
C1413      N1431   1.157       .  T
C1414      C1415   1.411       .  A
C1414      C1419   1.450       .  S
C1415      C1416   1.414       .  A
C1415      C1421   1.451       .  S
C1416      C1417   1.413       .  A
C1417      C1418   1.405       .  A
C1417      C1420   1.452       .  S
C1418      C1422   1.453       .  S
C1419      N1426   1.157       .  T
C1420      N1427   1.158       .  T
C1421      N1425   1.157       .  T
C1422      N1428   1.157       .  T
C1423      N1432   1.157       .  T
C1433      C1434   1.412       .  A
C1433      C1438   1.416       .  A
C1433      C1451   1.450       .  S
C1434      C1439   1.504       .  S
C1434      C1435   1.410       .  A
C1435      C1436   1.413       .  A
C1435      C1440   1.451       .  S
C1436      C1437   1.418       .  A
C1436      C1452   1.451       .  S
C1437      C1438   1.417       .  A
C1438      C1441   1.450       .  S
C1439      C1442   1.408       .  A
C1439      C1446   1.412       .  A
C1440      N1457   1.157       .  T
C1441      N1459   1.157       .  T
C1442      C1443   1.412       .  A
C1442      C1447   1.451       .  S
C1443      C1449   1.452       .  S
C1444      C1445   1.419   1_554  A
C1445      C1448   1.450       .  S
C1447      N1454   1.157       .  T
C1448      N1455   1.158       .  T
C1449      N1453   1.157       .  T
C1450      N1456   1.157       .  T
C1451      N1460   1.157       .  T
C1452      N1458   1.157       .  T
C1461      C1462   1.409       .  A
C1461      C1466   1.415       .  A
C1461      C1479   1.451       .  S
C1462      C1467   1.507       .  S
C1462      C1463   1.412       .  A
C1463      C1464   1.417       .  A
C1463      C1468   1.450       .  S
C1464      C1465   1.417       .  A
C1464      C1480   1.450       .  S
C1465      C1466   1.422       .  A
C1466      C1469   1.452       .  S
C1467      C1470   1.410       .  A
C1467      C1474   1.412       .  A
C1468      N1485   1.157       .  T
C1469      N1487   1.158       .  T
C1470      C1471   1.413       .  A
C1470      C1475   1.451       .  S
C1471      C1472   1.418       .  A
C1471      C1477   1.451       .  S
C1472      C1473   1.418       .  A
C1473      C1474   1.418       .  A
C1474      C1478   1.450       .  S
C1475      N1482   1.157       .  T
C1476      N1483   1.157       .  T
C1477      N1481   1.157       .  T
C1478      N1484   1.157       .  T
C1479      N1488   1.157       .  T
C1480      N1486   1.157       .  T
C1489      C1490   1.410       .  A
C1489      C1494   1.412       .  A
C1489      C1507   1.450       .  S
C1490      C1495   1.493       .  S
C1490      C1491   1.408       .  A
C1491      C1492   1.407       .  A
C1491      C1496   1.452       .  S
C1492      C1493   1.417       .  A
C1492      C1508   1.452       .  S
C1493      C1494   1.417       .  A
C1494      C1497   1.451       .  S
C1495      C1498   1.411       .  A
C1495      C1502   1.411       .  A
C1496      N1513   1.157       .  T
C1497      N1515   1.158       .  T
C1498      C1499   1.413       .  A
C1498      C1503   1.450       .  S
C1499      C1500   1.415       .  A
C1499      C1505   1.450       .  S
C1500      C1501   1.413       .  A
C1501      C1502   1.405       .  A
C1501      C1504   1.452       .  S
C1502      C1506   1.452       .  S
C1503      N1510   1.157       .  T
C1504      N1511   1.157       .  T
C1505      N1509   1.157       .  T
C1506      N1512   1.157       .  T
C1507      N1516   1.157       .  T
C1508      N1514   1.157       .  T
C1517      C1518   1.412       .  A
C1517      C1522   1.415       .  A
C1517      C1535   1.449       .  S
C1518      C1523   1.499       .  S
C1518      C1519   1.411       .  A
C1519      C1520   1.409       .  A
C1519      C1524   1.451       .  S
C1520      C1521   1.414       .  A
C1520      C1536   1.452       .  S
C1521      C1522   1.414       .  A
C1522      C1525   1.450       .  S
C1523      C1526   1.409       .  A
C1523      C1530   1.411       .  A
C1524      N1541   1.157       .  T
C1525      N1543   1.157       .  T
C1526      C1527   1.411       .  A
C1526      C1531   1.450       .  S
C1527      C1528   1.416       .  A
C1527      C1533   1.451       .  S
C1528      C1529   1.417       .  A
C1529      C1530   1.414       .  A
C1531      N1538   1.157       .  T
C1532      N1539   1.157       .  T
C1533      N1537   1.157       .  T
C1534      N1540   1.157       .  T
C1535      N1544   1.157       .  T
C1536      N1542   1.157       .  T
C1545      C1546   1.414       .  A
C1545      C1550   1.416       .  A
C1545      C1563   1.450       .  S
C1546      C1551   1.506   1_455  S
C1546      C1547   1.411       .  A
C1547      C1548   1.412       .  A
C1547      C1552   1.450       .  S
C1548      C1549   1.415       .  A
C1548      C1564   1.452       .  S
C1549      C1550   1.415       .  A
C1550      C1553   1.450       .  S
C1551      C1554   1.414       .  A
C1551      C1558   1.409       .  A
C1552      N1569   1.157       .  T
C1553      N1571   1.157       .  T
C1554      C1555   1.419       .  A
C1554      C1559   1.450       .  S
C1555      C1556   1.418       .  A
C1555      C1561   1.450       .  S
C1556      C1557   1.420       .  A
C1557      C1558   1.412       .  A
C1557      C1560   1.451       .  S
C1558      C1562   1.452   1_655  S
C1559      N1566   1.157       .  T
C1560      N1567   1.157       .  T
C1561      N1565   1.157       .  T
C1562      N1568   1.157       .  T
C1563      N1572   1.157   1_455  T
C1564      N1570   1.157       .  T
C1573      C1574   1.408       .  A
C1573      C1578   1.405       .  A
C1573      C1591   1.452       .  S
C1574      C1579   1.488   1_655  S
C1574      C1575   1.408       .  A
C1575      C1576   1.412       .  A
C1575      C1580   1.450       .  S
C1576      C1577   1.417       .  A
C1576      C1592   1.449       .  S
C1577      C1578   1.417       .  A
C1578      C1581   1.452       .  S
C1579      C1582   1.410       .  A
C1579      C1586   1.409       .  A
C1580      N1597   1.157   1_655  T
C1581      N1599   1.157       .  T
C1582      C1583   1.403       .  A
C1582      C1587   1.452       .  S
C1583      C1584   1.413       .  A
C1583      C1589   1.453       .  S
C1584      C1585   1.414       .  A
C1585      C1586   1.411       .  A
C1585      C1588   1.450       .  S
C1586      C1590   1.449   1_455  S
C1587      N1594   1.157       .  T
C1588      N1595   1.157       .  T
C1589      N1593   1.157       .  T
C1590      N1596   1.157       .  T
C1591      N1600   1.157       .  T
C1601      C1602   1.411       .  A
C1601      C1606   1.413       .  A
C1601      C1619   1.450       .  S
C1602      C1607   1.498       .  S
C1602      C1603   1.409       .  A
C1603      C1604   1.410       .  A
C1603      C1608   1.451       .  S
C1604      C1605   1.418       .  A
C1604      C1620   1.452       .  S
C1605      C1606   1.417       .  A
C1606      C1609   1.450       .  S
C1607      C1610   1.409       .  A
C1607      C1614   1.410       .  A
C1608      N1625   1.157       .  T
C1609      N1627   1.158       .  T
C1610      C1611   1.409       .  A
C1610      C1615   1.452       .  S
C1611      C1612   1.418       .  A
C1611      C1617   1.452       .  S
C1612      C1613   1.416       .  A
C1613      C1614   1.416       .  A
C1613      C1616   1.450       .  S
C1614      C1618   1.449       .  S
C1615      N1622   1.157       .  T
C1616      N1623   1.157       .  T
C1617      N1621   1.157       .  T
C1618      N1624   1.157       .  T
C1619      N1628   1.157       .  T
C1620      N1626   1.157       .  T
C1629      C1630   1.413       .  A
C1629      C1634   1.415       .  A
C1629      C1647   1.449       .  S
C1630      C1635   1.501       .  S
C1630      C1631   1.409       .  A
C1631      C1632   1.411       .  A
C1631      C1636   1.451       .  S
C1632      C1633   1.418       .  A
C1632      C1648   1.452       .  S
C1633      C1634   1.413       .  A
C1634      C1637   1.450       .  S
C1635      C1638   1.413       .  A
C1635      C1642   1.410       .  A
C1636      N1653   1.157       .  T
C1637      N1655   1.157       .  T
C1638      C1639   1.415       .  A
C1638      C1643   1.450       .  S
C1639      C1640   1.412       .  A
C1639      C1645   1.449       .  S
C1640      C1641   1.414       .  A
C1641      C1642   1.412       .  A
C1641      C1644   1.451       .  S
C1642      C1646   1.450       .  S
C1643      N1650   1.157       .  T
C1644      N1651   1.157       .  T
C1645      N1649   1.157       .  T
C1646      N1652   1.157       .  T
C1647      N1656   1.157       .  T
C1648      N1654   1.157       .  T
