geometry optimzed in LAMMPS
_audit_creation_date              2020-12-01 
_audit_creation_method            'lammps2cif' 
_symmetry_space_group_name_H-M    'P1' 
_symmetry_Int_Tables_number       1 
_symmetry_cell_setting            triclinic 
loop_ 
_symmetry_equiv_pos_as_xyz 
  x,y,z 
_cell_length_a                    53.41481409 
_cell_length_b                    53.630191796104576 
_cell_length_c                    29.565312913240987 
_cell_angle_alpha                 89.9161958476296 
_cell_angle_beta                  89.83553605819081 
_cell_angle_gamma                 89.24335005212713 
loop_ 
_atom_site_label 
_atom_site_type_symbol 
_atom_site_fract_x 
_atom_site_fract_y 
_atom_site_fract_z 
_atom_site_charge 
O1          O  0.41405560  0.86260193  0.91517346    -0.81600
C2          C  0.42615010  0.87699836  0.72667692     0.97700
O3          O  0.42110119  0.89381408  0.75549805    -0.70700
O4          O  0.38176513  0.88663407  0.80635888    -0.74300
Al5        Al  0.41566404  0.89320398  0.82018357     1.49000
C6          C  0.36672856  0.87380279  0.82912609     0.93000
O7          O  0.39836172  0.81824184  0.82067717    -0.80500
O8          O  0.46763678  0.83729826  0.84853795    -0.74100
Al9        Al  0.40705122  0.84196121  0.86570543     1.90100
O10         O  0.43542139  0.81547624  0.78871952    -0.73200
O11         O  0.47012849  0.87731025  0.79389624    -0.73000
O12         O  0.43500784  0.85616690  0.73899768    -0.78700
O13         O  0.44830734  0.90458214  0.83289724    -0.76900
O14         O  0.42413406  0.86103344  0.82702851    -1.13000
O15         O  0.40824931  0.89925374  0.88360291    -0.72200
C16         C  0.41090827  0.88576986  0.91852974     0.98500
C17         C  0.41408044  0.80654569  0.79645760     0.94900
Al18       Al  0.44977849  0.84780187  0.79539176     1.55600
O19         O  0.37479758  0.85757302  0.85652901    -0.76800
C20         C  0.46830219  0.89821554  0.81329347     0.99100
C21         C  0.45847777  0.82401979  0.87969879     0.94000
O22         O  0.43508724  0.82244857  0.88471510    -0.82100
O23         O  0.41924458  0.65330960  0.10474514    -0.81600
C24         C  0.42604699  0.64787500  0.29448899     0.97700
O25         O  0.42538238  0.62944943  0.26798219    -0.70700
O26         O  0.38643207  0.63050061  0.21513038    -0.74300
Al27       Al  0.42136407  0.62710870  0.20378684     1.49000
C28         C  0.37024099  0.64100642  0.19050806     0.93000
O29         O  0.39208299  0.69751334  0.19081219    -0.80500
O30         O  0.46453505  0.68908412  0.17257694    -0.74100
Al31       Al  0.40664294  0.67452391  0.14999636     1.90100
O32         O  0.42625120  0.70788488  0.22670432    -0.73200
O33         O  0.47158941  0.65163835  0.23038313    -0.73000
O34         O  0.43146481  0.66925606  0.28023172    -0.78700
O35         O  0.45591579  0.61933543  0.19541917    -0.76900
O36         O  0.42506555  0.65975178  0.19275021    -1.13000
O37         O  0.41630879  0.61776940  0.14121831    -0.72200
C38         C  0.41871760  0.62990869  0.10471889     0.98500
C39         C  0.40354442  0.71203540  0.21661654     0.94900
Al40       Al  0.44667789  0.67781268  0.22468808     1.55600
O41         O  0.37692094  0.65518928  0.15875574    -0.76800
C42         C  0.47394436  0.62970559  0.21513229     0.99100
C43         C  0.45470532  0.69964512  0.13873249     0.94000
O44         O  0.43162080  0.69745647  0.13092076    -0.82100
O45         O  0.32027375  0.56494480  0.62319040    -0.81600
C46         C  0.36068785  0.56354472  0.79937083     0.97700
O47         O  0.34671272  0.54698661  0.78288901    -0.70700
O48         O  0.30341585  0.56103344  0.75016858    -0.74300
Al49       Al  0.33076720  0.54323163  0.72488190     1.49000
C50         C  0.28896963  0.57620862  0.73071224     0.93000
O51         O  0.33132561  0.61875430  0.70251748    -0.80500
O52         O  0.38544039  0.57688634  0.64958825    -0.74100
Al53       Al  0.32675742  0.59067088  0.66458440     1.90100
O54         O  0.37178833  0.61380009  0.71103333    -0.73200
O55         O  0.38855159  0.54466086  0.71605794    -0.73000
O56         O  0.37090287  0.57961363  0.77444143    -0.78700
O57         O  0.35637391  0.52065375  0.70465597    -0.76900
O58         O  0.34461981  0.57045597  0.70048340    -1.13000
O59         O  0.31173862  0.53468035  0.67102640    -0.72200
C60         C  0.31089208  0.54401816  0.63153364     0.98500
C61         C  0.35226172  0.62734375  0.71356570     0.94900
Al62       Al  0.37642112  0.57803012  0.71173070     1.55600
O63         O  0.29533490  0.58649198  0.69422771    -0.76800
C64         C  0.37957022  0.52334819  0.71021312     0.99100
C65         C  0.37519415  0.58983960  0.61910818     0.94000
O66         O  0.35388846  0.59971979  0.62558417    -0.82100
O67         O  0.16839142  0.57068143  0.40834369    -0.81600
C68         C  0.12638137  0.55641155  0.23680822     0.97700
O69         O  0.14272361  0.54193467  0.25463967    -0.70700
O70         O  0.18403134  0.56034742  0.28813413    -0.74300
Al71       Al  0.15843748  0.54109781  0.31416783     1.49000
C72         C  0.19439072  0.58011674  0.30013855     0.93000
O73         O  0.14164569  0.61774523  0.32502668    -0.80500
O74         O  0.09994815  0.56644336  0.38597546    -0.74100
Al75       Al  0.15421050  0.59219682  0.36485190     1.90100
O76         O  0.10342679  0.60411164  0.32452541    -0.73200
O77         O  0.10148782  0.53425940  0.31737556    -0.73000
O78         O  0.11303814  0.57102125  0.26071564    -0.78700
O79         O  0.13627772  0.51609084  0.33680524    -0.76900
O80         O  0.14038820  0.56725386  0.33404529    -1.13000
O81         O  0.17701489  0.53655334  0.36984406    -0.72200
C82         C  0.17820621  0.54927519  0.40586577     0.98500
C83         C  0.11858924  0.62152938  0.31869754     0.94900
Al84       Al  0.10749344  0.56876489  0.32329384     1.55600
O85         O  0.18491414  0.59348821  0.33093340    -0.76800
C86         C  0.11361328  0.51471160  0.32619504     0.99100
C87         C  0.10790987  0.58170957  0.41503330     0.94000
O88         O  0.12641987  0.59561523  0.40638263    -0.82100
O89         O  0.05315112  0.86196040  0.11031484    -0.81600
C90         C  0.04772896  0.86774214  0.30041680     0.97700
O91         O  0.04826687  0.88592753  0.27326787    -0.70700
O92         O  0.08664875  0.88498391  0.21891485    -0.74300
Al93       Al  0.05154947  0.88841112  0.20946139     1.49000
C94         C  0.10229488  0.87472200  0.19273806     0.93000
O95         O  0.08023815  0.81833957  0.19710912    -0.80500
O96         O  0.00746794  0.82822659  0.17932924    -0.74100
Al97       Al  0.06556287  0.84079519  0.15599513     1.90100
O98         O  0.04588764  0.80742733  0.23234522    -0.73200
O99         O  0.00124910  0.86486281  0.23884423    -0.73000
O100        O  0.04163497  0.84631044  0.28721931    -0.78700
O101        O  0.01710411  0.89653381  0.20227405    -0.76900
O102        O  0.04753021  0.85593578  0.19901786    -1.13000
O103        O  0.05586383  0.89739178  0.14730037    -0.72200
C104        C  0.05427474  0.88542740  0.11069559     0.98500
C105        C  0.06867181  0.80335573  0.22198452     0.94900
Al106      Al  0.02581486  0.83822932  0.23165973     1.55600
O107        O  0.09513679  0.86004728  0.16240992    -0.76800
C108        C  0.99905036  0.88669181  0.22288174     0.99100
C109        C  0.01719747  0.81669522  0.14641182     0.94000
O110        O  0.04045040  0.81754816  0.13910843    -0.82100
O111        O  0.06733806  0.64813611  0.92579164    -0.81600
C112        C  0.05183841  0.63766891  0.73893622     0.97700
O113        O  0.05448268  0.61963034  0.76635022    -0.70700
O114        O  0.09559498  0.62372863  0.81240810    -0.74300
Al115      Al  0.06204988  0.61896355  0.83012330     1.49000
C116        C  0.11202849  0.63566886  0.83329018     0.93000
O117        O  0.08529842  0.69073712  0.83040613    -0.80500
O118        O  0.01508769  0.67620654  0.86478497    -0.74100
Al119      Al  0.07526659  0.66862348  0.87620012     1.90100
O120        O  0.04782687  0.69894108  0.80386540    -0.73200
O121        O  0.00919062  0.63875767  0.80722168    -0.73000
O122        O  0.04522166  0.65903267  0.75256145    -0.78700
O123        O  0.02899784  0.60998863  0.84627248    -0.76900
O124        O  0.05620651  0.65138680  0.83867464    -1.13000
O125        O  0.07130907  0.61176448  0.89218319    -0.72200
C126        C  0.06990116  0.62480295  0.92782726     0.98500
C127        C  0.07075773  0.70437702  0.80765193     0.94900
Al128      Al  0.03129618  0.66693268  0.80958852     1.55600
O129        O  0.10594557  0.65081091  0.86411540    -0.76800
C130        C  0.00947475  0.61778596  0.82680671     0.99100
C131        C  0.02538016  0.68908804  0.89499762     0.94000
O132        O  0.04896714  0.69071508  0.89684479    -0.82100
O133        O  0.29169570  0.94975371  0.37225420    -0.81600
C134        C  0.35189826  0.95835707  0.22518087     0.97700
O135        O  0.32977133  0.96443621  0.23649123    -0.70700
O136        O  0.28742158  0.96009835  0.28248509    -0.74300
Al137      Al  0.31939797  0.97446480  0.29498553     1.49000
C138        C  0.28037384  0.93784397  0.27905660     0.93000
O139        O  0.33285095  0.89569133  0.32847087    -0.80500
O140        O  0.37027335  0.93150044  0.37932014    -0.74100
Al141      Al  0.31412903  0.92499139  0.34711900     1.90100
O142        O  0.36550498  0.91100742  0.29402823    -0.73200
O143        O  0.37329338  0.97538589  0.34130299    -0.73000
O144        O  0.36867087  0.95396343  0.25482404    -0.78700
O145        O  0.34754068  0.99648051  0.29886636    -0.76900
O146        O  0.33354043  0.94733852  0.31992453    -1.13000
O147        O  0.30807170  0.98593058  0.35292015    -0.72200
C148        C  0.29384109  0.97309344  0.37797741     0.98500
C149        C  0.35241437  0.89273735  0.30489345     0.94900
Al150      Al  0.36661128  0.94333301  0.31761473     1.55600
O151        O  0.29359157  0.92036430  0.29523215    -0.76800
C152        C  0.36741626  0.99528823  0.32153422     0.99100
C153        C  0.35454457  0.92760615  0.41061784     0.94000
O154        O  0.33150194  0.92682745  0.40228115    -0.82100
O155        O  0.17018762  0.94015035  0.64598630    -0.81600
C156        C  0.11790195  0.94894183  0.80332260     0.97700
O157        O  0.13998241  0.95232456  0.78959802    -0.70700
O158        O  0.17976471  0.94521556  0.73756105    -0.74300
Al159      Al  0.14834382  0.96367871  0.73109266     1.49000
C160        C  0.18465370  0.92205144  0.73574238     0.93000
O161        O  0.12696727  0.88855643  0.68976560    -0.80500
O162        O  0.09034946  0.92507434  0.65511827    -0.74100
Al163      Al  0.14702365  0.91667057  0.67153444     1.90100
O164        O  0.10039283  0.90481344  0.73845997    -0.73200
O165        O  0.09253122  0.96971080  0.69137795    -0.73000
O166        O  0.09967613  0.94855201  0.77597393    -0.78700
O167        O  0.12101994  0.98817208  0.73185333    -0.76900
O168        O  0.13122331  0.93909494  0.70555637    -1.13000
O169        O  0.15807339  0.97655210  0.67372132    -0.72200
C170        C  0.17011264  0.96380924  0.64479802     0.98500
C171        C  0.11047354  0.88605553  0.72021969     0.94900
Al172      Al  0.09843623  0.93727393  0.71441790     1.55600
O173        O  0.16933864  0.90739151  0.71810270    -0.76800
C174        C  0.10042197  0.98891768  0.71072952     0.99100
C175        C  0.10324110  0.92260083  0.61952436     0.94000
O176        O  0.12676846  0.92321526  0.62091668    -0.82100
O177        O  0.62703695  0.43051768  0.42201040    -0.81600
C178        C  0.61101862  0.44891433  0.23641178     0.97700
O179        O  0.59446170  0.44788284  0.26687331    -0.70700
O180        O  0.59785568  0.40586727  0.31018873    -0.74300
Al181      Al  0.59601718  0.43919999  0.32969885     1.49000
C182        C  0.60895320  0.38797071  0.32936742     0.93000
O183        O  0.66672325  0.40855009  0.32404976    -0.80500
O184        O  0.65954459  0.47955745  0.35491794    -0.74100
Al185      Al  0.64572802  0.42069420  0.37083376     1.90100
O186        O  0.67586258  0.44441410  0.29293453    -0.73200
O187        O  0.61873272  0.48943249  0.30366727    -0.73000
O188        O  0.63379420  0.45168417  0.24642418    -0.78700
O189        O  0.59061291  0.47260368  0.34805710    -0.76900
O190        O  0.62916552  0.44146724  0.33434903    -1.13000
O191        O  0.58978100  0.42960577  0.39153025    -0.72200
C192        C  0.60366034  0.42991435  0.42601207     0.98500
C193        C  0.68075326  0.42149074  0.29943529     0.94900
Al194      Al  0.64560803  0.46440223  0.30229893     1.55600
O195        O  0.62519791  0.39186039  0.35953069    -0.76800
C196        C  0.59829744  0.49096545  0.32558516     0.99100
C197        C  0.67149843  0.46802388  0.38551415     0.94000
O198        O  0.66962595  0.44466621  0.39001873    -0.82100
O199        O  0.84733397  0.44135381  0.62045318    -0.81600
C200        C  0.85235526  0.45881586  0.80738099     0.97700
O201        O  0.87023394  0.46132869  0.77976640    -0.70700
O202        O  0.87574282  0.42082017  0.73370562    -0.74300
Al203      Al  0.87278059  0.45455234  0.71665919     1.49000
C204        C  0.86730895  0.40194755  0.71415477     0.93000
O205        O  0.80642827  0.41612163  0.71223231    -0.80500
O206        O  0.80545041  0.48750364  0.68334824    -0.74100
Al207      Al  0.82772209  0.43047866  0.66886386     1.90100
O208        O  0.79142495  0.45044603  0.74210847    -0.73200
O209        O  0.84168367  0.50116371  0.74127614    -0.73000
O210        O  0.82989516  0.46081694  0.79456162    -0.78700
O211        O  0.87399500  0.48865711  0.70135273    -0.76900
O212        O  0.83983233  0.45281728  0.70741535    -1.13000
O213        O  0.88265938  0.44766266  0.65581325    -0.72200
C214        C  0.87061179  0.44427733  0.61988365     0.98500
C215        C  0.79000580  0.42725703  0.73521005     0.94900
Al216      Al  0.81891642  0.47332874  0.73758855     1.55600
O217        O  0.85089921  0.40409139  0.68370646    -0.76800
C218        C  0.86272337  0.50547706  0.72336416     0.99100
C219        C  0.79675834  0.47517050  0.65060764     0.94000
O220        O  0.80210098  0.45225550  0.64575462    -0.82100
O221        O  0.92835560  0.33780945  0.13492174    -0.81600
C222        C  0.93115668  0.38539590  0.30460997     0.97700
O223        O  0.94611963  0.36856792  0.29116256    -0.70700
O224        O  0.92980067  0.32678584  0.26008865    -0.74300
Al225      Al  0.95030742  0.35163614  0.23492612     1.49000
C226        C  0.91213205  0.31475579  0.24336884     0.93000
O227        O  0.87389360  0.36371199  0.20479618    -0.80500
O228        O  0.92370089  0.40796181  0.15155293    -0.74100
Al229      Al  0.90294779  0.35188054  0.17221781     1.90100
O230        O  0.88568719  0.40229532  0.21259275    -0.73200
O231        O  0.95549039  0.40885166  0.21823390    -0.73000
O232        O  0.91839441  0.39833901  0.27726114    -0.78700
O233        O  0.97621326  0.37360201  0.21585554    -0.76900
O234        O  0.92496019  0.36814014  0.20710962    -1.13000
O235        O  0.95865151  0.33119624  0.18385690    -0.72200
C236        C  0.94918075  0.32801029  0.14522897     0.98500
C237        C  0.86877163  0.38623326  0.21358430     0.94900
Al238      Al  0.92124670  0.40123534  0.21426392     1.55600
O239        O  0.90136429  0.32229513  0.20800250    -0.76800
C240        C  0.97584534  0.39704624  0.21623820     0.99100
C241        C  0.91105945  0.39791004  0.12085667     0.94000
O242        O  0.89989474  0.37764092  0.12785248    -0.82100
O243        O  0.93612154  0.19273427  0.89200386    -0.81600
C244        C  0.93384479  0.14527171  0.72121505     0.97700
O245        O  0.95062595  0.15994532  0.73464246    -0.70700
O246        O  0.93265496  0.20317160  0.76108721    -0.74300
Al247      Al  0.95405235  0.17932526  0.78920989     1.49000
C248        C  0.91765883  0.21772436  0.78105782     0.93000
O249        O  0.87992591  0.17494890  0.82216839    -0.80500
O250        O  0.92728712  0.12567729  0.87445394    -0.74100
Al251      Al  0.90913730  0.18275821  0.85528147     1.90100
O252        O  0.88724022  0.13477146  0.81704552    -0.73200
O253        O  0.95745910  0.12274966  0.80365673    -0.73000
O254        O  0.91862854  0.13578105  0.74881054    -0.78700
O255        O  0.97888460  0.15689340  0.81288488    -0.76900
O256        O  0.92891067  0.16486502  0.81878062    -1.13000
O257        O  0.96232593  0.20226333  0.83747226    -0.72200
C258        C  0.95498784  0.20441386  0.87809765     0.98500
C259        C  0.87240207  0.15327604  0.81400674     0.94900
Al260      Al  0.92319345  0.13246793  0.81175518     1.55600
O261        O  0.91014568  0.21293108  0.82062030    -0.76800
C262        C  0.97818741  0.13353174  0.80808448     0.99100
C263        C  0.91464305  0.13595160  0.90548456     0.94000
O264        O  0.90360352  0.15662507  0.89864656    -0.82100
O265        O  0.63203407  0.09476777  0.62715935    -0.81600
C266        C  0.62165323  0.06792883  0.80705867     0.97700
O267        O  0.61155591  0.08265938  0.77907507    -0.70700
O268        O  0.60990003  0.11323086  0.70995329    -0.74300
Al269      Al  0.60822106  0.07757248  0.71627058     1.49000
C270        C  0.62797416  0.12822182  0.70889701     0.93000
O271        O  0.68876612  0.09030573  0.70384260    -0.80500
O272        O  0.67910715  0.03752465  0.69068515    -0.74100
Al273      Al  0.65830778  0.09040455  0.66994261     1.90100
O274        O  0.68044086  0.06860941  0.76471725    -0.73200
O275        O  0.63410211  0.02194751  0.71780659    -0.73000
O276        O  0.63731491  0.05152656  0.79409783    -0.78700
O277        O  0.59921225  0.04348723  0.72529689    -0.76900
O278        O  0.64096490  0.07162654  0.70849837    -1.13000
O279        O  0.60076968  0.07313461  0.65385088    -0.72200
C280        C  0.61116532  0.08446423  0.62164333     0.98500
C281        C  0.69449416  0.08313992  0.74318753     0.94900
Al282      Al  0.65634975  0.04701835  0.73906261     1.55600
O283        O  0.64982008  0.12055619  0.70000716    -0.76800
C284        C  0.61057043  0.02276203  0.72181146     0.99100
C285        C  0.68084599  0.04397229  0.64960397     0.94000
O286        O  0.66881492  0.06265709  0.63500746    -0.82100
O287        O  0.83713185  0.09153500  0.40894555    -0.81600
C288        C  0.85430946  0.07527375  0.22371709     0.97700
O289        O  0.87131632  0.07915628  0.25265226    -0.70700
O290        O  0.86549744  0.11911219  0.30205283    -0.74300
Al291      Al  0.87028366  0.08493220  0.31700698     1.49000
C292        C  0.85093958  0.13500195  0.31954385     0.93000
O293        O  0.79604742  0.10557227  0.30894620    -0.80500
O294        O  0.81332179  0.03654562  0.34625933    -0.74100
Al295      Al  0.81785568  0.09731994  0.35701567     1.90100
O296        O  0.79148491  0.06772276  0.28326619    -0.73200
O297        O  0.85367002  0.03139559  0.29103316    -0.73000
O298        O  0.83324630  0.06692756  0.23536839    -0.78700
O299        O  0.88074307  0.05190232  0.33100232    -0.76900
O300        O  0.83762239  0.07837773  0.32211111    -1.13000
O301        O  0.87511199  0.09216339  0.38026831    -0.72200
C302        C  0.86045855  0.09215585  0.41400045     0.98500
C303        C  0.78383553  0.09003317  0.28656449     0.94900
Al304      Al  0.82421276  0.05282183  0.29174061     1.55600
O305        O  0.83343897  0.12830070  0.34505687    -0.76800
C306        C  0.87461353  0.03241383  0.31053757     0.99100
C307        C  0.79975149  0.04710327  0.37604252     0.94000
O308        O  0.79766680  0.07058887  0.37753553    -0.82100
O309        O  0.55329527  0.33680515  0.91680648    -0.81600
C310        C  0.54488910  0.37102255  0.73663687     0.97700
O311        O  0.53182691  0.35402213  0.75426332    -0.70700
O312        O  0.55403685  0.31512471  0.79190699    -0.74300
Al313      Al  0.53065076  0.33961916  0.81401752     1.49000
C314        C  0.57106385  0.30445859  0.81438765     0.93000
O315        O  0.60478406  0.35623951  0.83560182    -0.80500
O316        O  0.55221657  0.40205121  0.88453701    -0.74100
Al317      Al  0.57761384  0.34702024  0.87442992     1.90100
O318        O  0.59069705  0.39428484  0.82340952    -0.73200
O319        O  0.52033584  0.39665614  0.81720604    -0.73000
O320        O  0.55804966  0.38514374  0.76067798    -0.78700
O321        O  0.50293198  0.36092944  0.83137046    -0.76900
O322        O  0.55431965  0.35934654  0.83691938    -1.13000
O323        O  0.52536408  0.32151652  0.86997978    -0.72200
C324        C  0.53431888  0.32365430  0.90951621     0.98500
C325        C  0.60835292  0.37844753  0.82291102     0.94900
Al326      Al  0.55516094  0.39167006  0.82284633     1.55600
O327        O  0.57958144  0.31448203  0.84935214    -0.76800
C328        C  0.50100410  0.38392221  0.82283940     0.99100
C329        C  0.56804289  0.39595493  0.91428417     0.94000
O330        O  0.58123291  0.37643630  0.90967594    -0.82100
O331        O  0.54129587  0.18825239  0.13990825    -0.81600
C332        C  0.54777736  0.13362510  0.30200598     0.97700
O333        O  0.53057019  0.14934728  0.29307251    -0.70700
O334        O  0.54769432  0.19286202  0.27000218    -0.74300
Al335      Al  0.52521300  0.17088694  0.24133974     1.49000
C336        C  0.56325847  0.20694939  0.25141600     0.93000
O337        O  0.59820342  0.16315586  0.20049766    -0.80500
O338        O  0.54739681  0.11970274  0.14524409    -0.74100
Al339      Al  0.56850857  0.17477313  0.17208516     1.90100
O340        O  0.58918593  0.12346829  0.19890650    -0.73200
O341        O  0.51922839  0.11501548  0.21984452    -0.73000
O342        O  0.56060395  0.12365129  0.27085401    -0.78700
O343        O  0.49911007  0.15076481  0.21826597    -0.76900
O344        O  0.54894337  0.15636436  0.20724480    -1.13000
O345        O  0.51549778  0.19569516  0.19638544    -0.72200
C346        C  0.52200521  0.19888564  0.15553941     0.98500
C347        C  0.60497587  0.14063762  0.20311640     0.94900
Al348      Al  0.55357257  0.12327118  0.20853938     1.55600
O349        O  0.57016122  0.20308602  0.21119285    -0.76800
C350        C  0.49890353  0.12731581  0.21985064     0.99100
C351        C  0.55917908  0.13149882  0.11501293     0.94000
O352        O  0.57108488  0.15097728  0.12442052    -0.82100
C353        C  0.50333743  0.27241858  0.98054565     0.18900
C354        C  0.49952158  0.24736397  0.96924600    -0.19200
C355        C  0.50004830  0.22887763  0.00266220    -0.11500
C356        C  0.50376643  0.23509801  0.04823826     0.21100
C357        C  0.50533685  0.26040989  0.06013687    -0.20800
C358        C  0.50509439  0.27891099  0.02659554    -0.11700
C359        C  0.51044278  0.21486917  0.08057576    -0.15800
C360        C  0.50811082  0.21647263  0.12590552    -0.29700
C361        C  0.50795189  0.29061835  0.94339221    -0.03900
C362        C  0.52387417  0.30967794  0.94818320    -0.40500
H363        H  0.49787151  0.24185144  0.93414557     0.12300
H364        H  0.49884814  0.20951800  0.99259731     0.11900
H365        H  0.50848732  0.26587184  0.09486275     0.11300
H366        H  0.50726757  0.29813666  0.03670941     0.11600
H367        H  0.51952253  0.19840046  0.06625798     0.14300
H368        H  0.49764610  0.23174124  0.14129755     0.13100
H369        H  0.50117166  0.28611398  0.90978273     0.10800
H370        H  0.53220492  0.31324251  0.98094652     0.12800
C371        C  0.66710838  0.10398367  0.21910435     0.18900
C372        C  0.67300634  0.07951052  0.23267647    -0.19200
C373        C  0.69776630  0.07239999  0.24176298    -0.11500
C374        C  0.71717620  0.08962722  0.23761680     0.21100
C375        C  0.71147619  0.11381612  0.22191717    -0.20800
C376        C  0.68673315  0.12091924  0.21274862    -0.11700
C377        C  0.74293545  0.08189802  0.25097335    -0.15800
C378        C  0.75988184  0.09813989  0.26637262    -0.29700
C379        C  0.64040077  0.11088735  0.21131019    -0.03900
C380        C  0.63167550  0.13456324  0.21040466    -0.40500
H381        H  0.65833977  0.06595214  0.23711172     0.12300
H382        H  0.70167915  0.05355766  0.25323648     0.11900
H383        H  0.72605586  0.12729893  0.21636035     0.11300
H384        H  0.68324502  0.13959118  0.20028919     0.11600
H385        H  0.74726332  0.06204737  0.25231040     0.14300
H386        H  0.75526580  0.11786931  0.26832993     0.13100
H387        H  0.62722479  0.09575389  0.20762039     0.10800
H388        H  0.64414095  0.15006449  0.21567273     0.12800
C389        C  0.59707035  0.19095834  0.74242961     0.18900
C390        C  0.58306241  0.19844967  0.78033388    -0.19200
C391        C  0.57700451  0.22359516  0.78717854    -0.11500
C392        C  0.58428379  0.24173195  0.75557387     0.21100
C393        C  0.59781193  0.23425927  0.71706043    -0.20800
C394        C  0.60447526  0.20910247  0.71079311    -0.11700
C395        C  0.57714430  0.26830828  0.76237586    -0.15800
C396        C  0.58036484  0.27923573  0.80273072    -0.29700
C397        C  0.60230172  0.16396825  0.73551090    -0.03900
C398        C  0.62354930  0.15516414  0.71653313    -0.40500
H399        H  0.57687397  0.18479166  0.80483023     0.12300
H400        H  0.56614993  0.22884006  0.81674960     0.11900
H401        H  0.60339076  0.24791479  0.69208898     0.11300
H402        H  0.61477519  0.20378465  0.68065478     0.11600
H403        H  0.56940459  0.27888820  0.73422463     0.14300
H404        H  0.58990677  0.26886122  0.82934864     0.13100
H405        H  0.58857137  0.15086223  0.74810538     0.10800
H406        H  0.63824091  0.16796368  0.70695395     0.12800
C407        C  0.76147401  0.03360341  0.48294911     0.18900
C408        C  0.76530455  0.03699272  0.52948744    -0.19200
C409        C  0.74540715  0.03511505  0.56015801    -0.11500
C410        C  0.72105149  0.03041419  0.54468557     0.21100
C411        C  0.71743022  0.02588682  0.49837069    -0.20800
C412        C  0.73750569  0.02714455  0.46778486    -0.11700
C413        C  0.69893710  0.03495214  0.57438240    -0.15800
C414        C  0.69910659  0.03121364  0.61946190    -0.29700
C415        C  0.78109005  0.04200775  0.45090986    -0.03900
C416        C  0.78506138  0.03259186  0.40917986    -0.40500
H417        H  0.78349663  0.04246091  0.54186979     0.12300
H418        H  0.74877619  0.03937556  0.59538058     0.11900
H419        H  0.69877994  0.02265437  0.48552293     0.11300
H420        H  0.73383287  0.02508274  0.43200119     0.11600
H421        H  0.68268863  0.04391553  0.55897826     0.14300
H422        H  0.71447722  0.02092180  0.63503409     0.13100
H423        H  0.79184181  0.05809164  0.46136202     0.10800
H424        H  0.77613770  0.01550694  0.39857623     0.12800
C425        C  0.56955683  0.09334384  0.00726585     0.18900
C426        C  0.58812490  0.07533107  0.99789732    -0.19200
C427        C  0.59644142  0.07134883  0.95344137    -0.11500
C428        C  0.58606949  0.08522818  0.91736065     0.21100
C429        C  0.56658483  0.10230689  0.92677173    -0.20800
C430        C  0.55841769  0.10635001  0.97109955    -0.11700
C431        C  0.59470399  0.08285190  0.86953180    -0.15800
C432        C  0.61473713  0.06936296  0.85547720    -0.29700
C433        C  0.56332287  0.09956106  0.05499335    -0.03900
C434        C  0.55959771  0.12336658  0.06757589    -0.40500
H435        H  0.59686175  0.06496719  0.02522499     0.12300
H436        H  0.61106934  0.05758993  0.94795844     0.11900
H437        H  0.55791642  0.11297810  0.89974675     0.11300
H438        H  0.54360067  0.11992585  0.97711556     0.11600
H439        H  0.58394291  0.09311993  0.84430929     0.14300
H440        H  0.62600544  0.05865227  0.87910939     0.13100
H441        H  0.56520511  0.08517514  0.08073567     0.10800
H442        H  0.56075956  0.13805246  0.04233485     0.12800
C443        C  0.60013212  0.09865423  0.49542044     0.18900
C444        C  0.61641743  0.09876003  0.45816772    -0.19200
C445        C  0.60734484  0.10322210  0.41470915    -0.11500
C446        C  0.58184428  0.10827292  0.40753136     0.21100
C447        C  0.56535843  0.10811277  0.44476845    -0.20800
C448        C  0.57443863  0.10328826  0.48841386    -0.11700
C449        C  0.57347949  0.11327995  0.36056311    -0.15800
C450        C  0.55320731  0.12718856  0.34963665    -0.29700
C451        C  0.61110830  0.09529172  0.54101840    -0.03900
C452        C  0.59874025  0.08629856  0.57715200    -0.40500
H453        H  0.63630206  0.09540130  0.46272135     0.12300
H454        H  0.62041823  0.10316583  0.38660802     0.11900
H455        H  0.54550926  0.11150641  0.44031675     0.11300
H456        H  0.56145524  0.10380823  0.51656549     0.11600
H457        H  0.58573472  0.10661208  0.33361096     0.14300
H458        H  0.54137834  0.13528767  0.37582002     0.13100
H459        H  0.63075545  0.09995899  0.54458738     0.10800
H460        H  0.57957382  0.08006109  0.57409542     0.12800
C461        C  0.89210713  0.11907854  0.02580412     0.18900
C462        C  0.86885752  0.12192357  0.04752186    -0.19200
C463        C  0.86476848  0.11160675  0.09028857    -0.11500
C464        C  0.88403046  0.09842225  0.11262079     0.21100
C465        C  0.90740948  0.09581094  0.09121131    -0.20800
C466        C  0.91140357  0.10584834  0.04803895    -0.11700
C467        C  0.88071596  0.08901572  0.15952534    -0.15800
C468        C  0.85850457  0.08134191  0.17557864    -0.29700
C469        C  0.89577284  0.13132892  0.98120977    -0.03900
C470        C  0.91238435  0.12341189  0.94985495    -0.40500
H471        H  0.85380539  0.13232900  0.03141407     0.12300
H472        H  0.84677856  0.11471856  0.10638232     0.11900
H473        H  0.92266487  0.08611583  0.10808971     0.11300
H474        H  0.92977826  0.10387928  0.03288715     0.11600
H475        H  0.89699249  0.08861642  0.18150270     0.14300
H476        H  0.84252821  0.08025765  0.15306439     0.13100
H477        H  0.88340441  0.14696208  0.97311879     0.10800
H478        H  0.92385991  0.10690414  0.95593998     0.12800
C479        C  0.91339217  0.11418741  0.60937335     0.18900
C480        C  0.89567695  0.09586614  0.59959261    -0.19200
C481        C  0.88987289  0.08987943  0.55495648    -0.11500
C482        C  0.90158898  0.10223945  0.51882675     0.21100
C483        C  0.92033167  0.11950693  0.52836341    -0.20800
C484        C  0.92614842  0.12556565  0.57315309    -0.11700
C485        C  0.89379517  0.09829946  0.47119385    -0.15800
C486        C  0.86993495  0.09330013  0.46063877    -0.29700
C487        C  0.91710458  0.12103514  0.65767269    -0.03900
C488        C  0.93229326  0.13909242  0.67263814    -0.40500
H489        H  0.88585611  0.08644088  0.62665770     0.12300
H490        H  0.87601380  0.07573846  0.54889905     0.11900
H491        H  0.92985342  0.12902114  0.50106908     0.11300
H492        H  0.94025140  0.13944530  0.57875595     0.11600
H493        H  0.90720820  0.10185262  0.44432687     0.14300
H494        H  0.85606732  0.09163277  0.48735625     0.13100
H495        H  0.90613538  0.11086105  0.68245181     0.10800
H496        H  0.94389581  0.14959320  0.64957396     0.12800
C497        C  0.80957698  0.12271388  0.78320823     0.18900
C498        C  0.79857632  0.10007074  0.79553261    -0.19200
C499        C  0.77385681  0.09494313  0.78361419    -0.11500
C500        C  0.75962414  0.11232542  0.75855249     0.21100
C501        C  0.77075637  0.13480807  0.74549881    -0.20800
C502        C  0.79541976  0.14006405  0.75787290    -0.11700
C503        C  0.73397527  0.10669978  0.74238137    -0.15800
C504        C  0.71849385  0.09073945  0.76342783    -0.29700
C505        C  0.83613333  0.12698011  0.79566645    -0.03900
C506        C  0.84594964  0.14976046  0.80118133    -0.40500
H507        H  0.80919987  0.08622741  0.81438946     0.12300
H508        H  0.76627874  0.07703803  0.79288499     0.11900
H509        H  0.76037547  0.14828238  0.72537347     0.11300
H510        H  0.80349811  0.15737678  0.74648554     0.11600
H511        H  0.72772493  0.11594024  0.71160138     0.14300
H512        H  0.72380533  0.08236130  0.79547695     0.13100
H513        H  0.84780297  0.11063011  0.80228613     0.10800
H514        H  0.83428926  0.16633585  0.79716329     0.12800
C515        C  0.88478206  0.24938574  0.26256050     0.18900
C516        C  0.86165775  0.23796317  0.25531827    -0.19200
C517        C  0.85816600  0.21293285  0.26691662    -0.11500
C518        C  0.87794666  0.19866101  0.28533556     0.21100
C519        C  0.90113718  0.20999156  0.29224560    -0.20800
C520        C  0.90451835  0.23513091  0.28132387    -0.11700
C521        C  0.87527628  0.17164689  0.29518163    -0.15800
C522        C  0.85371962  0.16185339  0.31002241    -0.29700
C523        C  0.88844063  0.27538097  0.24645217    -0.03900
C524        C  0.90536533  0.29078616  0.26455140    -0.40500
H525        H  0.84631881  0.24838287  0.24016908     0.12300
H526        H  0.84024504  0.20457698  0.26002528     0.11900
H527        H  0.91674089  0.19929330  0.30583719     0.11300
H528        H  0.92286419  0.24302170  0.28600491     0.11600
H529        H  0.89175701  0.15967281  0.29185702     0.14300
H530        H  0.83777327  0.17401697  0.31712341     0.13100
H531        H  0.87722928  0.28177676  0.21798716     0.10800
H532        H  0.91588537  0.28500331  0.29421684     0.12800
C533        C  0.96555176  0.24608914  0.98138881     0.18900
C534        C  0.96779468  0.24302042  0.02836311    -0.19200
C535        C  0.96621134  0.26360014  0.05736922    -0.11500
C536        C  0.96182083  0.28768437  0.03990455     0.21100
C537        C  0.96070847  0.29088222  0.99281862    -0.20800
C538        C  0.96281008  0.27035358  0.96376126    -0.11700
C539        C  0.95429782  0.30877693  0.06980067    -0.15800
C540        C  0.96191201  0.31098907  0.11295234    -0.29700
C541        C  0.96139589  0.22379370  0.95270146    -0.03900
C542        C  0.96691483  0.22276674  0.90825906    -0.40500
H543        H  0.96951613  0.22449899  0.04279596     0.12300
H544        H  0.96655281  0.26032649  0.09349312     0.11900
H545        H  0.95701039  0.30918108  0.97856951     0.11300
H546        H  0.96035866  0.27334961  0.92782519     0.11600
H547        H  0.94073088  0.32214893  0.05647005     0.17500
H548        H  0.97656732  0.29874263  0.12593846     0.13100
H549        H  0.95140821  0.20841670  0.96814017     0.10800
H550        H  0.97815329  0.23722872  0.89283867     0.12800
C551        C  0.90970674  0.41362679  0.41640073     0.18900
C552        C  0.90981559  0.43751676  0.43546879    -0.19200
C553        C  0.89984665  0.44155263  0.47851065    -0.11500
C554        C  0.88915625  0.42175793  0.50254659     0.21100
C555        C  0.88914726  0.39783406  0.48359972    -0.20800
C556        C  0.89957058  0.39369557  0.44097460    -0.11700
C557        C  0.87618463  0.42589813  0.54581375    -0.15800
C558        C  0.88401075  0.44224142  0.57682405    -0.29700
C559        C  0.91748346  0.41051541  0.36896993    -0.03900
C560        C  0.92789135  0.38935970  0.35328292    -0.40500
H561        H  0.91717663  0.45314442  0.41662540     0.12300
H562        H  0.89952388  0.46029258  0.49207090     0.11900
H563        H  0.88070248  0.38242866  0.50154618     0.11300
H564        H  0.89858113  0.37521230  0.42645605     0.11600
H565        H  0.86030019  0.41409135  0.55345405     0.14300
H566        H  0.90130504  0.45235556  0.57209696     0.13100
H567        H  0.91392747  0.42598962  0.34597059     0.10800
H568        H  0.93332576  0.37445172  0.37630204     0.12800
C569        C  0.88487257  0.43014529  0.91027908     0.18900
C570        C  0.88071136  0.44441380  0.94942462    -0.19200
C571        C  0.88645890  0.43446965  0.99200420    -0.11500
C572        C  0.89601475  0.40998741  0.99588355     0.21100
C573        C  0.90009392  0.39584449  0.95667895    -0.20800
C574        C  0.89501266  0.40600777  0.91418072    -0.11700
C575        C  0.90018100  0.39804181  0.04033352    -0.15800
C576        C  0.90861156  0.41036889  0.07662558    -0.29700
C577        C  0.87932800  0.43999671  0.86477057    -0.03900
C578        C  0.85811253  0.45260193  0.85477948    -0.40500
H579        H  0.87319513  0.46321997  0.94702666     0.12300
H580        H  0.88272341  0.44561417  0.02183138     0.11900
H581        H  0.90727747  0.37689843  0.95898653     0.11300
H582        H  0.89842957  0.39478188  0.88428817     0.11600
H583        H  0.89679659  0.37813935  0.04285441     0.14300
H584        H  0.91388574  0.42980149  0.07380373     0.13100
H585        H  0.89197445  0.43443134  0.83758813     0.10800
H586        H  0.84406299  0.45612486  0.88071011     0.12800
C587        C  0.87692672  0.33110783  0.72715137     0.18900
C588        C  0.87914150  0.31062559  0.69785063    -0.19200
C589        C  0.88591195  0.28703506  0.71456440    -0.11500
C590        C  0.89022808  0.28354408  0.76110925     0.21100
C591        C  0.88732356  0.30389899  0.79041183    -0.20800
C592        C  0.88083031  0.32742633  0.77372024    -0.11700
C593        C  0.89704697  0.25898004  0.78091172    -0.15800
C594        C  0.90946075  0.24091941  0.75828210    -0.29700
C595        C  0.86936532  0.35587935  0.70900406    -0.03900
C596        C  0.87660129  0.37723105  0.72848208    -0.40500
H597        H  0.87574157  0.31292501  0.66196697     0.12300
H598        H  0.88725810  0.27157412  0.69118419     0.11900
H599        H  0.89017047  0.30160496  0.82646104     0.11300
H600        H  0.87833833  0.34254944  0.79756566     0.11600
H601        H  0.89309784  0.25631961  0.81668070     0.14300
H602        H  0.91500907  0.24368244  0.72330952     0.13100
H603        H  0.85770045  0.35654112  0.67895122     0.10800
H604        H  0.88950893  0.37669883  0.75679065     0.12800
C605        C  0.67927674  0.38734240  0.80586324     0.18900
C606        C  0.70029329  0.37270391  0.79438479    -0.19200
C607        C  0.72325556  0.38388294  0.78439286    -0.11500
C608        C  0.72563877  0.41005942  0.78595711     0.21100
C609        C  0.70482347  0.42449482  0.79920775    -0.20800
C610        C  0.68200762  0.41335759  0.80919817    -0.11700
C611        C  0.74904842  0.42336427  0.77368280    -0.15800
C612        C  0.76858275  0.41273820  0.75198477    -0.29700
C613        C  0.65486245  0.37527622  0.81555210    -0.03900
C614        C  0.63305483  0.38738596  0.80834011    -0.40500
H615        H  0.69885091  0.35260504  0.79255713     0.12300
H616        H  0.73890167  0.37183950  0.77570339     0.11900
H617        H  0.70612544  0.44459531  0.80150546     0.11300
H618        H  0.66663388  0.42526235  0.82006207     0.11600
H619        H  0.74958570  0.44327080  0.78041711     0.14300
H620        H  0.76848818  0.39311374  0.74342479     0.13100
H621        H  0.65483770  0.35642793  0.82906398     0.10800
H622        H  0.63316102  0.40578941  0.79301586     0.12800
C623        C  0.74753715  0.41099745  0.24934140     0.18900
C624        C  0.76713081  0.42717272  0.23849359    -0.19200
C625        C  0.79119073  0.41797463  0.22863914    -0.11500
C626        C  0.79649637  0.39214907  0.22966450     0.21100
C627        C  0.77671869  0.37587409  0.23880853    -0.20800
C628        C  0.75256749  0.38508591  0.24858185    -0.11700
C629        C  0.82216054  0.38164283  0.22033190    -0.15800
C630        C  0.84311275  0.39511848  0.22495801    -0.29700
C631        C  0.72261110  0.42219511  0.26204732    -0.03900
C632        C  0.70360685  0.40935641  0.28054577    -0.40500
H633        H  0.76389069  0.44715916  0.23802499     0.12300
H634        H  0.80540665  0.43128562  0.21978009     0.11900
H635        H  0.78003134  0.35590044  0.23895571     0.11300
H636        H  0.73811738  0.37170674  0.25544981     0.11600
H637        H  0.82386256  0.36225362  0.20999222     0.14300
H638        H  0.84170140  0.41420445  0.23686113     0.13100
H639        H  0.72041702  0.44229202  0.25878597     0.10800
H640        H  0.70541813  0.38944974  0.28593907     0.12800
C641        C  0.75526483  0.48411269  0.54611916     0.18900
C642        C  0.75859946  0.48517562  0.49899338    -0.19200
C643        C  0.73797011  0.48418252  0.46982751    -0.11500
C644        C  0.71368730  0.48134526  0.48740537     0.21100
C645        C  0.71028454  0.48145590  0.53450179    -0.20800
C646        C  0.73080521  0.48318183  0.56362311    -0.11700
C647        C  0.69270313  0.47337948  0.45818876    -0.15800
C648        C  0.68891347  0.48137528  0.41552833    -0.29700
C649        C  0.77719350  0.47908004  0.57571921    -0.03900
C650        C  0.77875059  0.48689569  0.61889245    -0.40500
H651        H  0.77729593  0.48549843  0.48470820     0.12300
H652        H  0.74123158  0.48357389  0.43368281     0.11900
H653        H  0.69179775  0.47889369  0.54881034     0.11300
H654        H  0.72764847  0.48170996  0.59970826     0.11600
H655        H  0.68043849  0.45919292  0.47191487     0.14300
H656        H  0.69952678  0.49683989  0.40199017     0.13100
H657        H  0.79179120  0.46678512  0.56240760     0.10800
H658        H  0.76546578  0.50061342  0.63196319     0.12800
C659        C  0.59441643  0.26964136  0.27860911     0.18900
C660        C  0.59987611  0.28986303  0.25033086    -0.19200
C661        C  0.60553820  0.31309085  0.26848114    -0.11500
C662        C  0.60608298  0.31665469  0.31556451     0.21100
C663        C  0.60181259  0.29618238  0.34408820    -0.20800
C664        C  0.59581489  0.27286637  0.32583437    -0.11700
C665        C  0.61136072  0.34160718  0.33488087    -0.15800
C666        C  0.60284085  0.36252716  0.31467436    -0.29700
C667        C  0.58734484  0.24574850  0.25700889    -0.03900
C668        C  0.57270528  0.22862705  0.27676390    -0.40500
H669        H  0.59932074  0.28781034  0.21389473     0.12300
H670        H  0.60964293  0.32824562  0.24551816     0.11900
H671        H  0.60260703  0.29837412  0.38047561     0.11300
H672        H  0.59246695  0.25748075  0.34867046     0.11600
H673        H  0.62185651  0.34276728  0.36621794     0.14300
H674        H  0.59083298  0.36105875  0.28522375     0.13100
H675        H  0.59267171  0.24317367  0.22178831     0.10800
H676        H  0.56607087  0.23130278  0.31115899     0.12800
C677        C  0.59910090  0.42252909  0.02106560     0.18900
C678        C  0.62403406  0.42207417  0.03595187    -0.19200
C679        C  0.63033861  0.43148798  0.07829375    -0.11500
C680        C  0.61179734  0.44118804  0.10711207     0.21100
C681        C  0.58694945  0.44296647  0.09135149    -0.20800
C682        C  0.58063229  0.43363153  0.04871224    -0.11700
C683        C  0.61899949  0.44776794  0.15402704    -0.15800
C684        C  0.60300301  0.44636961  0.18902680    -0.29700
C685        C  0.59319123  0.40908255  0.97871888    -0.03900
C686        C  0.57199010  0.41177692  0.95444970    -0.40500
H687        H  0.63864344  0.41370161  0.01525268     0.12300
H688        H  0.64962295  0.43011403  0.08939667     0.11900
H689        H  0.57226648  0.45109238  0.11208741     0.11300
H690        H  0.56120437  0.43421313  0.03851977     0.11600
H691        H  0.63863380  0.45134508  0.16066580     0.14300
H692        H  0.58354510  0.44175909  0.18339046     0.13100
H693        H  0.60743435  0.39596119  0.96680940     0.10800
H694        H  0.55795166  0.42575481  0.96320893     0.12800
C695        C  0.55424016  0.40211837  0.62001809     0.18900
C696        C  0.56326669  0.42563803  0.60756809    -0.19200
C697        C  0.56768490  0.43146586  0.56230964    -0.11500
C698        C  0.56310479  0.41385690  0.52837087     0.21100
C699        C  0.55258580  0.39093413  0.54024674    -0.20800
C700        C  0.54834624  0.38495934  0.58573071    -0.11700
C701        C  0.57093592  0.41835834  0.48103102    -0.15800
C702        C  0.59302325  0.42895033  0.47182496    -0.29700
C703        C  0.55273497  0.39627894  0.66908616    -0.03900
C704        C  0.54441417  0.37484344  0.68719474    -0.40500
H705        H  0.56765909  0.43936662  0.63310878     0.12300
H706        H  0.57522344  0.44954747  0.55393776     0.11900
H707        H  0.54879387  0.37716354  0.51446876     0.11300
H708        H  0.54121834  0.36669986  0.59354159     0.11600
H709        H  0.56012329  0.41020414  0.45383814     0.14300
H710        H  0.60501860  0.43475462  0.49940372     0.13100
H711        H  0.55936689  0.41062086  0.69192894     0.10800
H712        H  0.53666603  0.36026393  0.66636670     0.12800
C713        C  0.06391946  0.04662119  0.75323834     0.18900
C714        C  0.06850318  0.06968407  0.77397744    -0.19200
C715        C  0.04862491  0.08591957  0.78557464    -0.11500
C716        C  0.02365972  0.07913989  0.77721013     0.21100
C717        C  0.01921749  0.05595331  0.75694184    -0.20800
C718        C  0.03895905  0.03991493  0.74520726    -0.11700
C719        C  0.00142223  0.09511746  0.78849425    -0.15800
C720        C  0.00178856  0.11872984  0.80432789    -0.29700
C721        C  0.08503035  0.02881835  0.74398108    -0.03900
C722        C  0.08380172  0.01116883  0.71167069    -0.40500
H723        H  0.08752013  0.07511549  0.78131845     0.12300
H724        H  0.05298273  0.10347058  0.80141351     0.11900
H725        H  0.00025138  0.05004137  0.75037285     0.11300
H726        H  0.03445608  0.02192345  0.73111635     0.11600
H727        H  0.98330324  0.08706472  0.78120259     0.14300
H728        H  0.01930633  0.12799004  0.81091169     0.13100
H729        H  0.10114387  0.02918405  0.76630843     0.10800
H730        H  0.06800541  0.01112422  0.68864967     0.12800
C731        C  0.45052225  0.07713244  0.25287093     0.18900
C732        C  0.45327512  0.05468922  0.27697171    -0.19200
C733        C  0.43244066  0.04092531  0.29004258    -0.11500
C734        C  0.40806534  0.04922832  0.27937782     0.21100
C735        C  0.40519463  0.07161153  0.25499985    -0.20800
C736        C  0.42614501  0.08554072  0.24207323    -0.11700
C737        C  0.38579104  0.03350528  0.28888018    -0.15800
C738        C  0.38542844  0.01598332  0.32167003    -0.29700
C739        C  0.47375271  0.09057777  0.23965978    -0.03900
C740        C  0.47466630  0.11437862  0.22494117    -0.40500
H741        H  0.47174909  0.04756987  0.28546148     0.12300
H742        H  0.43568600  0.02331763  0.30704244     0.11900
H743        H  0.38668378  0.07819091  0.24547253     0.11300
H744        H  0.42308426  0.10246904  0.22288936     0.11600
H745        H  0.37004417  0.03506503  0.26579432     0.14300
H746        H  0.40078100  0.01456930  0.34551803     0.13100
H747        H  0.49137523  0.08068593  0.24520634     0.10800
H748        H  0.45765560  0.12539998  0.22109781     0.12800
C749        C  0.24443089  0.98054576  0.46992326     0.18900
C750        C  0.21824665  0.98259460  0.47203309    -0.19200
C751        C  0.20572452  0.98037501  0.51342267    -0.11500
C752        C  0.21923038  0.97527398  0.55315595     0.21100
C753        C  0.24546682  0.97422053  0.55132643    -0.20800
C754        C  0.25802767  0.97721487  0.51014258    -0.11700
C755        C  0.20629554  0.96680493  0.59457987    -0.15800
C756        C  0.18429639  0.97635786  0.60883075    -0.29700
C757        C  0.25667461  0.97659717  0.42557134    -0.03900
C758        C  0.27970121  0.98473656  0.41538147    -0.40500
H759        H  0.20741673  0.98465341  0.44129510     0.12300
H760        H  0.18545099  0.98068140  0.51373241     0.11900
H761        H  0.25618392  0.96992461  0.58147648     0.11300
H762        H  0.27819216  0.97487864  0.50926753     0.11600
H763        H  0.21481047  0.95137592  0.61316859     0.14300
H764        H  0.17642935  0.99305671  0.59328490     0.13100
H765        H  0.24714912  0.96456513  0.40174244     0.10800
H766        H  0.28896634  0.99813094  0.43692818     0.12800
C767        C  0.94939277  0.58629256  0.78509655     0.18900
C768        C  0.92476157  0.59291838  0.77270868    -0.19200
C769        C  0.90831127  0.57493703  0.75576448    -0.11500
C770        C  0.91649038  0.55008601  0.75006912     0.21100
C771        C  0.94104729  0.54358358  0.76254078    -0.20800
C772        C  0.95724260  0.56132744  0.77996486    -0.11700
C773        C  0.90075717  0.53021849  0.73023387    -0.15800
C774        C  0.87556290  0.52928785  0.73275485    -0.29700
C775        C  0.96750584  0.60590142  0.79833850    -0.03900
C776        C  0.98781686  0.60094681  0.82400253    -0.40500
H777        H  0.91836996  0.61210539  0.77557032     0.12300
H778        H  0.88960968  0.58066198  0.74588771     0.11900
H779        H  0.94789162  0.52461263  0.75834371     0.11300
H780        H  0.97625950  0.55554847  0.78747772     0.11600
H781        H  0.91084027  0.51396416  0.71733662     0.14300
H782        H  0.86496371  0.54439121  0.74839258     0.13100
H783        H  0.96493157  0.62442451  0.78401278     0.10800
H784        H  0.98988863  0.58282335  0.84007080     0.12800
C785        C  0.09808320  0.81547925  0.72671158     0.18900
C786        C  0.11280119  0.79369414  0.72395838    -0.19200
C787        C  0.10291375  0.77062065  0.73639456    -0.11500
C788        C  0.07794248  0.76888602  0.75151243     0.21100
C789        C  0.06289585  0.79049849  0.75201860    -0.20800
C790        C  0.07282958  0.81356610  0.73993188    -0.11700
C791        C  0.06711962  0.74501447  0.76758154    -0.15800
C792        C  0.08119186  0.72706543  0.78704553    -0.29700
C793        C  0.10920852  0.83986236  0.71454487    -0.03900
C794        C  0.10156573  0.86127394  0.73405247    -0.40500
H795        H  0.13212139  0.79459668  0.71288079     0.12300
H796        H  0.11484140  0.75422009  0.73388868     0.11900
H797        H  0.04350888  0.78962057  0.76270888     0.11300
H798        H  0.06061998  0.82982277  0.74063992     0.11600
H799        H  0.04690235  0.74302345  0.76678354     0.14300
H800        H  0.10120205  0.72962892  0.79075863     0.13100
H801        H  0.12422808  0.84013092  0.68967900     0.10800
H802        H  0.08746882  0.86085956  0.76058159     0.12800
C803        C  0.91282542  0.97494615  0.26785678     0.18900
C804        C  0.90814866  0.95071777  0.25199351    -0.19200
C805        C  0.92797776  0.93449398  0.23983484    -0.11500
C806        C  0.95298130  0.94237688  0.24246053     0.21100
C807        C  0.95755139  0.96675037  0.25738269    -0.20800
C808        C  0.93785135  0.98276234  0.27012532    -0.11700
C809        C  0.97485761  0.92634696  0.22879566    -0.15800
C810        C  0.97542536  0.90116026  0.23051336    -0.29700
C811        C  0.89143473  0.99241473  0.27823011    -0.03900
C812        C  0.89332990  0.01172965  0.30726977    -0.40500
H813        H  0.88907264  0.94434003  0.24891872     0.12300
H814        H  0.92364721  0.91608073  0.22744357     0.11900
H815        H  0.97655415  0.97349719  0.25919641     0.11300
H816        H  0.94232645  0.00153056  0.28038928     0.11600
H817        H  0.99208324  0.93591726  0.22039478     0.14300
H818        H  0.95908865  0.89113523  0.24208437     0.13100
H819        H  0.87399872  0.98984009  0.26008830     0.10800
H820        H  0.91040984  0.01386465  0.32660153     0.12800
C821        C  0.16603426  0.90005638  0.23179255     0.18900
C822        C  0.17422152  0.92316680  0.24772727    -0.19200
C823        C  0.19960700  0.92712685  0.25616067    -0.11500
C824        C  0.21741225  0.90791071  0.24916839     0.21100
C825        C  0.20921646  0.88469625  0.23373144    -0.20800
C826        C  0.18383096  0.88080945  0.22481790    -0.11700
C827        C  0.24421144  0.91104028  0.26121703    -0.15800
C828        C  0.25557177  0.93324195  0.25903445    -0.29700
C829        C  0.13872302  0.89622606  0.22562344    -0.03900
C830        C  0.12938186  0.87923625  0.19710729    -0.40500
H831        H  0.16089014  0.93814201  0.25409634     0.12300
H832        H  0.20507101  0.94499489  0.26964560     0.11900
H833        H  0.22245936  0.86947978  0.22895173     0.11300
H834        H  0.17818461  0.86246818  0.21399233     0.11600
H835        H  0.25456396  0.89484326  0.27333041     0.14300
H836        H  0.24558556  0.94924665  0.24532210     0.13100
H837        H  0.12588575  0.90811071  0.24465103     0.10800
H838        H  0.14187983  0.86826318  0.17581337     0.12800
C839        C  0.00253110  0.76498389  0.06387541     0.18900
C840        C  0.00320354  0.73880534  0.06381591    -0.19200
C841        C  0.00471980  0.72560794  0.02307181    -0.11500
C842        C  0.00625060  0.73849577  0.98176234     0.21100
C843        C  0.00371781  0.76456708  0.98165780    -0.20800
C844        C  0.00151858  0.77772974  0.02232622    -0.11700
C845        C  0.01577193  0.72585667  0.94055017    -0.15800
C846        C  0.01015232  0.70236820  0.92912283    -0.29700
C847        C  0.00906005  0.77831836  0.10598993    -0.03900
C848        C  0.00193356  0.80188605  0.11530256    -0.40500
H849        H  0.00435893  0.72862026  0.09543312     0.12300
H850        H  0.00711113  0.70553646  0.02423465     0.11900
H851        H  0.00512794  0.77486590  0.95022046     0.11300
H852        H  0.00155958  0.79790653  0.02123544     0.11600
H853        H  0.02936770  0.73586095  0.92021625     0.14300
H854        H  0.99532595  0.69248801  0.94648089     0.13100
H855        H  0.02283934  0.76929047  0.12779770     0.10800
H856        H  0.98725793  0.81116028  0.09600706     0.12800
C857        C  0.07442216  0.89858167  0.40682774     0.18900
C858        C  0.06426362  0.88745093  0.44575856    -0.19200
C859        C  0.07326330  0.89374587  0.48862959    -0.11500
C860        C  0.09261366  0.91111448  0.49302508     0.21100
C861        C  0.10279529  0.92196597  0.45413754    -0.20800
C862        C  0.09356256  0.91602238  0.41153630    -0.11700
C863        C  0.10374678  0.91724046  0.53722343    -0.15800
C864        C  0.09068510  0.91794779  0.57610737    -0.29700
C865        C  0.06521567  0.89333611  0.36074473    -0.03900
C866        C  0.05467365  0.87179442  0.34807031    -0.40500
H867        H  0.04920384  0.87423269  0.44328783     0.12300
H868        H  0.06544432  0.88468284  0.51809964     0.11900
H869        H  0.11785377  0.93522077  0.45677439     0.11300
H870        H  0.10162344  0.92488564  0.38203559     0.11600
H871        H  0.12347091  0.92199367  0.53741347     0.14300
H872        H  0.07065821  0.91471286  0.57621432     0.13100
H873        H  0.06867603  0.90754803  0.33529653     0.10800
H874        H  0.05236690  0.85663644  0.37201188     0.12800
C875        C  0.08541183  0.92851368  0.91131695     0.18900
C876        C  0.06331606  0.93452232  0.93472616    -0.19200
C877        C  0.05718767  0.92188664  0.97444357    -0.11500
C878        C  0.07291380  0.90270468  0.99069689     0.21100
C879        C  0.09481764  0.89644398  0.96690691    -0.20800
C880        C  0.10115224  0.90934376  0.92767554    -0.11700
C881        C  0.06681094  0.88854307  0.03187184    -0.15800
C882        C  0.05564776  0.89909465  0.06788355    -0.29700
C883        C  0.09025495  0.94038653  0.86729234    -0.03900
C884        C  0.11349037  0.94387733  0.85138957    -0.40500
H885        H  0.05069566  0.94885132  0.92199929     0.12300
H886        H  0.03987308  0.92665870  0.99165544     0.11900
H887        H  0.10703903  0.88153244  0.97873276     0.11300
H888        H  0.11785418  0.90367118  0.90935670     0.11600
H889        H  0.07405331  0.86953624  0.03442512     0.14300
H890        H  0.05065105  0.91878991  0.06770436     0.13100
H891        H  0.07415475  0.94502554  0.84635427     0.10800
H892        H  0.12964115  0.94060105  0.87293668     0.12800
C893        C  0.06956719  0.46525422  0.27680664     0.18900
C894        C  0.05821259  0.46494753  0.23408049    -0.19200
C895        C  0.04324310  0.44512606  0.22094144    -0.11500
C896        C  0.03859500  0.42528994  0.25084062     0.21100
C897        C  0.05121922  0.42477320  0.29260982    -0.20800
C898        C  0.06660348  0.44460566  0.30559191    -0.11700
C899        C  0.01913188  0.40628688  0.24093591    -0.15800
C900        C  0.99892496  0.41181384  0.21538713    -0.29700
C901        C  0.08224410  0.48851442  0.29066143    -0.03900
C902        C  0.10136932  0.49024950  0.32020241    -0.40500
H903        H  0.06049793  0.48046372  0.21097466     0.12300
H904        H  0.03484031  0.44579105  0.18771522     0.11900
H905        H  0.04816588  0.40962860  0.31618219     0.11300
H906        H  0.07502843  0.44434368  0.33884059     0.11600
H907        H  0.01944443  0.38896016  0.26005828     0.14300
H908        H  0.99708164  0.43018415  0.20027101     0.13100
H909        H  0.07624706  0.50531886  0.27286199     0.10800
H910        H  0.10937201  0.47368450  0.33593579     0.12800
C911        C  0.07279768  0.60968807  0.62500465     0.18900
C912        C  0.06987096  0.58689955  0.60249047    -0.19200
C913        C  0.07876279  0.58372957  0.55822871    -0.11500
C914        C  0.09105855  0.60331214  0.53593585     0.21100
C915        C  0.09424549  0.62594247  0.55879080    -0.20800
C916        C  0.08519903  0.62916260  0.60273208    -0.11700
C917        C  0.10226485  0.60061491  0.49018218    -0.15800
C918        C  0.09534290  0.58353166  0.45949674    -0.29700
C919        C  0.06431850  0.61223982  0.67262991    -0.03900
C920        C  0.05714047  0.63427592  0.69039857    -0.40500
H921        H  0.06079275  0.57148396  0.61929791     0.12300
H922        H  0.07661041  0.56575600  0.54228532     0.11900
H923        H  0.10401601  0.64116852  0.54270634     0.11300
H924        H  0.08864987  0.64667187  0.61959889     0.11600
H925        H  0.11672048  0.61380613  0.48107140     0.14300
H926        H  0.08019918  0.57082809  0.46664370     0.13100
H927        H  0.06415410  0.59558233  0.69360693     0.10800
H928        H  0.05590947  0.65072361  0.66902093     0.12800
C929        C  0.08680084  0.58230694  0.02828186     0.18900
C930        C  0.10924543  0.57002127  0.03999716    -0.19200
C931        C  0.11459605  0.56443993  0.08537671    -0.11500
C932        C  0.09729957  0.57078223  0.11968354     0.21100
C933        C  0.07426632  0.58167638  0.10732416    -0.20800
C934        C  0.06901629  0.58729682  0.06226212    -0.11700
C935        C  0.10269735  0.56824607  0.16882493    -0.15800
C936        C  0.12251606  0.55616464  0.18722094    -0.29700
C937        C  0.08282466  0.59120340  0.98118530    -0.03900
C938        C  0.07157041  0.61333793  0.97300419    -0.40500
H939        H  0.12315248  0.56582222  0.01428507     0.12300
H940        H  0.13257622  0.55608822  0.09330725     0.11900
H941        H  0.06044350  0.58650290  0.13285398     0.11300
H942        H  0.05118683  0.59602251  0.05417775     0.11600
H943        H  0.08937964  0.57735280  0.19148682     0.14300
H944        H  0.13580052  0.54590470  0.16637368     0.13100
H945        H  0.09137269  0.58084305  0.95348012     0.10800
H946        H  0.06526404  0.62478453  0.00120088     0.12800
C947        C  0.10932840  0.69118437  0.28858998     0.18900
C948        C  0.12032091  0.70780988  0.25803653    -0.19200
C949        C  0.10851718  0.73059662  0.24758411    -0.11500
C950        C  0.08561616  0.73752478  0.26838808     0.21100
C951        C  0.07495150  0.72100624  0.29958171    -0.20800
C952        C  0.08666282  0.69820244  0.30975122    -0.11700
C953        C  0.07175480  0.76114905  0.25724748    -0.15800
C954        C  0.08248573  0.78072940  0.23685196    -0.29700
C955        C  0.12165941  0.66664972  0.29809866    -0.03900
C956        C  0.10808947  0.64621525  0.30637163    -0.40500
H957        H  0.13775746  0.70286049  0.24129850     0.12300
H958        H  0.11719991  0.74226973  0.22237877     0.11900
H959        H  0.05743555  0.72575924  0.31620368     0.11300
H960        H  0.07799816  0.68616485  0.33450833     0.11600
H961        H  0.05201079  0.76241328  0.26603306     0.14300
H962        H  0.10231553  0.78018175  0.22905020     0.13100
H963        H  0.14196522  0.66522883  0.29695476     0.10800
H964        H  0.08780484  0.64751749  0.30444260     0.12800
C965        C  0.41197153  0.46171994  0.74532902     0.18900
C966        C  0.40942063  0.44655383  0.78402854    -0.19200
C967        C  0.42929271  0.43102703  0.79862175    -0.11500
C968        C  0.45203926  0.43049739  0.77458268     0.21100
C969        C  0.45401941  0.44467738  0.73483107    -0.20800
C970        C  0.43423149  0.45978873  0.72002647    -0.11700
C971        C  0.47503474  0.41737688  0.79071519    -0.15800
C972        C  0.47617765  0.39620066  0.81556941    -0.29700
C973        C  0.39197114  0.48041352  0.73357856    -0.03900
C974        C  0.39710292  0.50186508  0.71166765    -0.40500
H975        H  0.39241098  0.44749087  0.80402619     0.12300
H976        H  0.42724288  0.42041502  0.82955034     0.11900
H977        H  0.47122675  0.44436357  0.71531475     0.11300
H978        H  0.43669604  0.47021601  0.68903924     0.11600
H979        H  0.49248088  0.42500559  0.77809164     0.14300
H980        H  0.45920617  0.38688856  0.82609622     0.13100
H981        H  0.37340843  0.47802189  0.74797984     0.10800
H982        H  0.41618923  0.50572858  0.70152277     0.12800
C983        C  0.17329539  0.61062928  0.78095641     0.18900
C984        C  0.18288875  0.58649949  0.77380349    -0.19200
C985        C  0.20773567  0.58287100  0.76023826    -0.11500
C986        C  0.22329129  0.60341257  0.75268798     0.21100
C987        C  0.21352606  0.62758074  0.75863555    -0.20800
C988        C  0.18879967  0.63120109  0.77312377    -0.11700
C989        C  0.24926778  0.59998162  0.73614202    -0.15800
C990        C  0.26396409  0.58098494  0.75010572    -0.29700
C991        C  0.14672971  0.61381461  0.79436016    -0.03900
C992        C  0.13868351  0.63235440  0.82149326    -0.40500
H993        H  0.17113643  0.57041838  0.77890251     0.12300
H994        H  0.21456525  0.56403606  0.75455180     0.11900
H995        H  0.22508894  0.64365736  0.75220926     0.11300
H996        H  0.18167109  0.65006253  0.77704760     0.11600
H997        H  0.25658085  0.61363087  0.71249580     0.14300
H998        H  0.25739313  0.56838910  0.77625186     0.13100
H999        H  0.13355858  0.59992652  0.78281911     0.10800
H1000       H  0.15195610  0.64531200  0.83578228     0.12800
C1001       C  0.22516706  0.51715026  0.48668630     0.18900
C1002       C  0.25064430  0.51141185  0.48030340    -0.19200
C1003       C  0.26715999  0.51101004  0.51707564    -0.11500
C1004       C  0.25839929  0.51604237  0.56114411     0.21100
C1005       C  0.23256475  0.51947304  0.56796544    -0.20800
C1006       C  0.21610708  0.52016202  0.53116428    -0.11700
C1007       C  0.27574009  0.52016847  0.59979275    -0.15800
C1008       C  0.29780187  0.53160304  0.59404200    -0.29700
C1009       C  0.20898828  0.52183581  0.44641585    -0.03900
C1010       C  0.19137966  0.54000624  0.44662406    -0.40500
H1011       H  0.25803732  0.50858712  0.44651262     0.12300
H1012       H  0.28686091  0.50751012  0.51078129     0.11900
H1013       H  0.22525270  0.52301727  0.60160749     0.11300
H1014       H  0.19641997  0.52376969  0.53747096     0.11600
H1015       H  0.26847041  0.51791895  0.63392560     0.14300
H1016       H  0.30387545  0.53644219  0.56009574     0.13100
H1017       H  0.21377549  0.51268432  0.41472218     0.10800
H1018       H  0.18821943  0.55064075  0.47741490     0.12800
C1019       C  0.52053823  0.57590113  0.24239295     0.18900
C1020       C  0.51628967  0.55282312  0.26334976    -0.19200
C1021       C  0.53623802  0.53810698  0.27923092    -0.11500
C1022       C  0.56113345  0.54593283  0.27403171     0.21100
C1023       C  0.56548946  0.56879375  0.25224537    -0.20800
C1024       C  0.54542136  0.58379233  0.23701076    -0.11700
C1025       C  0.58262401  0.52929514  0.28688712    -0.15800
C1026       C  0.58134171  0.51293933  0.32148603    -0.29700
C1027       C  0.49847525  0.59070429  0.22599393    -0.03900
C1028       C  0.49776982  0.61581231  0.22312017    -0.40500
H1029       H  0.49737570  0.54611550  0.26750348     0.12300
H1030       H  0.53210657  0.52018998  0.29419530     0.11900
H1031       H  0.58447875  0.57500224  0.24683802     0.11300
H1032       H  0.54946656  0.60118349  0.22008080     0.11600
H1033       H  0.59909869  0.52926289  0.26524996     0.14300
H1034       H  0.56508362  0.51340136  0.34362600     0.13100
H1035       H  0.48124969  0.58061240  0.22027131     0.10800
H1036       H  0.51410332  0.62646210  0.23241912     0.12800
C1037       C  0.40370400  0.58760090  0.00516730     0.18900
C1038       C  0.38057102  0.57715452  0.99413868    -0.19200
C1039       C  0.37422146  0.57284495  0.94893819    -0.11500
C1040       C  0.39117159  0.57861379  0.91403262     0.21100
C1041       C  0.41481598  0.58778305  0.92542775    -0.20800
C1042       C  0.42111148  0.59210413  0.97047281    -0.11700
C1043       C  0.38459955  0.57709591  0.86540169    -0.15800
C1044       C  0.36559422  0.56379549  0.84846182    -0.29700
C1045       C  0.40822045  0.59585841  0.05226926    -0.03900
C1046       C  0.41989366  0.61738562  0.06060538    -0.40500
H1047       H  0.36686445  0.57357332  0.02034994     0.12300
H1048       H  0.35569890  0.56608137  0.94160839     0.11900
H1049       H  0.42830273  0.59218021  0.89924784     0.11300
H1050       H  0.43936868  0.59956019  0.97799486     0.11600
H1051       H  0.39649813  0.58726917  0.84206868     0.14300
H1052       H  0.35420993  0.55218334  0.87016078     0.13100
H1053       H  0.39857231  0.58641563  0.07966490     0.10800
H1054       H  0.42726087  0.62823638  0.03263314     0.12800
C1055       C  0.38967478  0.61216467  0.49791663     0.18900
C1056       C  0.38252181  0.63339996  0.47313571    -0.19200
C1057       C  0.39138421  0.63707348  0.42923040    -0.11500
C1058       C  0.40754270  0.61943252  0.40898342     0.21100
C1059       C  0.41447264  0.59800175  0.43341182    -0.20800
C1060       C  0.40577432  0.59442055  0.47761903    -0.11700
C1061       C  0.41610194  0.62231814  0.36157348    -0.15800
C1062       C  0.41986905  0.64478192  0.34269836    -0.29700
C1063       C  0.37849549  0.60855024  0.54340309    -0.03900
C1064       C  0.38815684  0.59344813  0.57548715    -0.40500
H1065       H  0.36979874  0.64712082  0.48766964     0.12300
H1066       H  0.38495020  0.65337333  0.41078674     0.11900
H1067       H  0.42655642  0.58396006  0.41815781     0.11300
H1068       H  0.41108838  0.57743293  0.49505967     0.11600
H1069       H  0.41955637  0.60552021  0.34186721     0.14300
H1070       H  0.41805384  0.66156744  0.36299935     0.13100
H1071       H  0.36150032  0.61914849  0.55092555     0.10800
H1072       H  0.40573400  0.58354633  0.56996328     0.12800
C1073       C  0.25713139  0.61102524  0.26865316     0.18900
C1074       C  0.26488162  0.63420753  0.25187490    -0.19200
C1075       C  0.28976506  0.63766731  0.23784572    -0.11500
C1076       C  0.30752428  0.61808688  0.24136226     0.21100
C1077       C  0.29977298  0.59509334  0.25881860    -0.20800
C1078       C  0.27488637  0.59150257  0.27190644    -0.11700
C1079       C  0.33456086  0.62132442  0.23030922    -0.15800
C1080       C  0.34311499  0.63739498  0.19896595    -0.29700
C1081       C  0.23097435  0.60768971  0.28519853    -0.03900
C1082       C  0.21877978  0.58614757  0.27907622    -0.40500
H1083       H  0.25166169  0.64965069  0.24966379     0.12300
H1084       H  0.29520356  0.65585975  0.22571457     0.11900
H1085       H  0.31309663  0.57982954  0.26256912     0.11300
H1086       H  0.26972646  0.57361750  0.28588408     0.11600
H1087       H  0.34794974  0.60948836  0.24813704     0.14300
H1088       H  0.32996071  0.64841209  0.17909448     0.13100
H1089       H  0.22175638  0.62304348  0.30279918     0.10800
H1090       H  0.22756972  0.57158727  0.25876289     0.12800
C1091       C  0.36462063  0.82194769  0.29399339     0.18900
C1092       C  0.35025971  0.80049421  0.28814656    -0.19200
C1093       C  0.36174394  0.77770243  0.27662187    -0.11500
C1094       C  0.38794963  0.77590903  0.27118205     0.21100
C1095       C  0.40232635  0.79713777  0.27911475    -0.20800
C1096       C  0.39085803  0.81988495  0.29027410    -0.11700
C1097       C  0.40104984  0.75239795  0.25744437    -0.15800
C1098       C  0.38993409  0.73428547  0.23369686    -0.29700
C1099       C  0.35213490  0.84618571  0.30504617    -0.03900
C1100       C  0.36157667  0.86789685  0.29058101    -0.40500
H1101       H  0.33008800  0.80146443  0.29181947     0.12300
H1102       H  0.35003768  0.76157629  0.27246781     0.11900
H1103       H  0.42253203  0.79622007  0.27602283     0.11300
H1104       H  0.40263854  0.83578780  0.29640637     0.11600
H1105       H  0.42096287  0.75070545  0.26445856     0.14300
H1106       H  0.37042112  0.73624695  0.22414058     0.13100
H1107       H  0.33506601  0.84615322  0.32512046     0.10800
H1108       H  0.37796417  0.86763593  0.26872882     0.12800
C1109       C  0.52470807  0.93698269  0.77189292     0.18900
C1110       C  0.54698725  0.93294824  0.74723218    -0.19200
C1111       C  0.56291865  0.95283701  0.73667644    -0.11500
C1112       C  0.55670811  0.97731494  0.75028756     0.21100
C1113       C  0.53437705  0.98126629  0.77455046    -0.20800
C1114       C  0.51860277  0.96152421  0.78514550    -0.11700
C1115       C  0.57220107  0.99958393  0.73971094    -0.15800
C1116       C  0.59621011  0.99925185  0.72517578    -0.29700
C1117       C  0.50727051  0.91578791  0.78011532    -0.03900
C1118       C  0.48888811  0.91642927  0.81158850    -0.40500
H1119       H  0.55199260  0.91435673  0.73580278     0.12300
H1120       H  0.57970458  0.94897429  0.71725664     0.11900
H1121       H  0.52890765  0.99989041  0.78515578     0.11300
H1122       H  0.50127277  0.96591047  0.80249429     0.11600
H1123       H  0.56352633  0.01759869  0.74691466     0.14300
H1124       H  0.60606397  0.98173968  0.71941052     0.13100
H1125       H  0.50886847  0.89965814  0.75803006     0.10800
H1126       H  0.48729616  0.93208448  0.83460442     0.12800
C1127       C  0.37844088  0.69091522  0.75275112     0.18900
C1128       C  0.40251012  0.70112918  0.75239935    -0.19200
C1129       C  0.40627622  0.72593160  0.76490263    -0.11500
C1130       C  0.38594997  0.74127413  0.77808350     0.21100
C1131       C  0.36197045  0.73091242  0.77974372    -0.20800
C1132       C  0.35817240  0.70606639  0.76709313    -0.11700
C1133       C  0.38936197  0.76766826  0.79236123    -0.15800
C1134       C  0.40863969  0.78159536  0.77810285    -0.29700
C1135       C  0.37568126  0.66433648  0.73891112    -0.03900
C1136       C  0.35374467  0.65361370  0.72856096    -0.40500
H1137       H  0.41855189  0.68984801  0.74235527     0.12300
H1138       H  0.42523004  0.73278314  0.76500872     0.11900
H1139       H  0.34607646  0.74212985  0.79070484     0.11300
H1140       H  0.33940985  0.69887862  0.76933163     0.11600
H1141       H  0.37568254  0.77579032  0.81549205     0.14300
H1142       H  0.42200405  0.77397410  0.75395020     0.13100
H1143       H  0.39276603  0.65323742  0.73571916     0.10800
H1144       H  0.33638956  0.66427381  0.72978356     0.12800
C1145       C  0.47193350  0.74076893  0.03708466     0.18900
C1146       C  0.47098726  0.73829791  0.98983324    -0.19200
C1147       C  0.47286079  0.75922144  0.96169080    -0.11500
C1148       C  0.47505887  0.78315615  0.98042142     0.21100
C1149       C  0.47767813  0.78545323  0.02748409    -0.20800
C1150       C  0.47650775  0.76441605  0.05559954    -0.11700
C1151       C  0.46837609  0.80553328  0.95317897    -0.15800
C1152       C  0.47455828  0.80846562  0.90931468    -0.29700
C1153       C  0.46295132  0.71988293  0.06572242    -0.03900
C1154       C  0.46967119  0.71603987  0.10908878    -0.40500
H1155       H  0.46716699  0.72034196  0.97477185     0.12300
H1156       H  0.47016166  0.75691215  0.92566081     0.11900
H1157       H  0.47894973  0.80374834  0.04273216     0.11300
H1158       H  0.47683076  0.76706182  0.09187879     0.11600
H1159       H  0.45500128  0.81854009  0.96832354     0.14300
H1160       H  0.48890459  0.79671712  0.89386219     0.13100
H1161       H  0.44864665  0.70810254  0.05116745     0.10800
H1162       H  0.48513929  0.72618220  0.12368462     0.12800
C1163       C  0.30236664  0.89847377  0.78859489     0.18900
C1164       C  0.29065355  0.89835573  0.74622703    -0.19200
C1165       C  0.26565677  0.90601327  0.74180207    -0.11500
C1166       C  0.25205592  0.91470070  0.77951325     0.21100
C1167       C  0.26381990  0.91520277  0.82188809    -0.20800
C1168       C  0.28867730  0.90676116  0.82658853    -0.11700
C1169       C  0.22609092  0.92444772  0.77392248    -0.15800
C1170       C  0.20920705  0.91175565  0.74985532    -0.29700
C1171       C  0.32942198  0.89194850  0.79141314    -0.03900
C1172       C  0.33940759  0.87847597  0.82545837    -0.40500
H1173       H  0.30093379  0.89239620  0.71642061     0.12300
H1174       H  0.25716286  0.90590562  0.70858420     0.11900
H1175       H  0.25376040  0.92209145  0.85128037     0.11300
H1176       H  0.29746772  0.90757011  0.85950094     0.11600
H1177       H  0.22103668  0.94231237  0.78887565     0.14300
H1178       H  0.21415041  0.89320042  0.73773659     0.13100
H1179       H  0.34139036  0.89789989  0.76374589     0.10800
H1180       H  0.32729436  0.87094979  0.85155887     0.12800
C1181       C  0.39236683  0.91577257  0.52068105     0.18900
C1182       C  0.41295481  0.90048470  0.53213283    -0.19200
C1183       C  0.41882160  0.89560620  0.57760493    -0.11500
C1184       C  0.40432659  0.90621504  0.61274137     0.21100
C1185       C  0.38431602  0.92219932  0.60117668    -0.20800
C1186       C  0.37833531  0.92688077  0.55585072    -0.11700
C1187       C  0.40974670  0.90176065  0.66169447    -0.15800
C1188       C  0.42198785  0.88145138  0.67767338    -0.29700
C1189       C  0.38599838  0.92004323  0.47204387    -0.03900
C1190       C  0.36225945  0.92399796  0.45829303    -0.40500
H1191       H  0.42433490  0.89201186  0.50579477     0.12300
H1192       H  0.43489522  0.88383435  0.58497892     0.11900
H1193       H  0.37308852  0.93098522  0.62739696     0.11300
H1194       H  0.36288108  0.93948169  0.54852601     0.11600
H1195       H  0.40222867  0.91521473  0.68578345     0.14300
H1196       H  0.42839688  0.86704446  0.65449872     0.13100
H1197       H  0.40084154  0.91854357  0.44695478     0.10800
H1198       H  0.34722905  0.92360127  0.48307348     0.12800
C1199       C  0.39640651  0.92731849  0.02202056     0.18900
C1200       C  0.37634130  0.94357321  0.03185879    -0.19200
C1201       C  0.37065381  0.95009545  0.07664272    -0.11500
C1202       C  0.38511736  0.94055246  0.11272896     0.21100
C1203       C  0.40585679  0.92517155  0.10254495    -0.20800
C1204       C  0.41149685  0.91865221  0.05784299    -0.11700
C1205       C  0.37937974  0.94578713  0.16130462    -0.15800
C1206       C  0.35781302  0.95614244  0.17642788    -0.29700
C1207       C  0.40060861  0.91908878  0.97444294    -0.03900
C1208       C  0.40985388  0.89629165  0.96461539    -0.40500
H1209       H  0.36461409  0.95075962  0.00486043     0.12300
H1210       H  0.35492947  0.96255130  0.08241923     0.11900
H1211       H  0.41759665  0.91783456  0.12940030     0.11300
H1212       H  0.42766627  0.90678273  0.05152829     0.11600
H1213       H  0.39309335  0.93952737  0.18607703     0.14300
H1214       H  0.34319549  0.96166996  0.15303246     0.13100
H1215       H  0.39369100  0.93091294  0.94720605     0.10800
H1216       H  0.41490546  0.88365010  0.99191860     0.12800
loop_ 
_geom_bond_atom_site_label_1 
_geom_bond_atom_site_label_2 
_geom_bond_distance 
_geom_bond_site_symmetry_2 
_ccdc_geom_bond_type 
O1           C16   1.256       .  A
O1           Al9   1.877       .  S
C2           O12   1.261       .  A
C2            O3   1.268       .  A
C2         C1188   1.485       .  S
O3           Al5   1.934       .  S
O4            C6   1.258       .  A
O4           Al5   1.895       .  S
Al5          O13   1.894       .  S
Al5          O15   1.942       .  S
Al5          O14   1.789       .  S
C6           O19   1.261       .  A
C6         C1172   1.482       .  S
O7           C17   1.263       .  A
O7           Al9   1.905       .  S
O8           C21   1.265       .  A
O8          Al18   1.920       .  S
Al9          O22   1.901       .  S
Al9          O19   1.925       .  S
Al9          O14   1.789       .  S
O10          C17   1.262       .  A
O10         Al18   1.916       .  S
O11          C20   1.263       .  A
O11         Al18   1.932       .  S
O12         Al18   1.897       .  S
O13          C20   1.257       .  A
O14         Al18   1.795       .  S
O15          C16   1.267       .  A
C16        C1208   1.476       .  S
C17        C1134   1.477       .  S
C20        C1118   1.481       .  S
C21          O22   1.262       .  A
C21        C1152   1.478       .  S
O23          C38   1.256       .  A
O23         Al31   1.875       .  S
C24          O34   1.258       .  A
C24          O25   1.263       .  A
C24        C1062   1.472       .  S
O25         Al27   1.915       .  S
O26          C28   1.259       .  A
O26         Al27   1.901       .  S
Al27         O35   1.902       .  S
Al27         O37   1.938       .  S
Al27         O36   1.794       .  S
C28          O41   1.261       .  A
C28        C1080   1.485       .  S
O29          C39   1.257       .  A
O29         Al31   1.885       .  S
O30          C43   1.261       .  A
O30         Al40   1.911       .  S
Al31         O44   1.910       .  S
Al31         O41   1.924       .  S
Al31         O36   1.783       .  S
O32          C39   1.267       .  A
O32         Al40   1.936       .  S
O33          C42   1.265       .  A
O33         Al40   1.929       .  S
O34         Al40   1.889       .  S
O35          C42   1.263       .  A
O36         Al40   1.789       .  S
O37          C38   1.267       .  A
C38        C1046   1.469       .  S
C39        C1098   1.478       .  S
C42        C1028   1.485       .  S
C43          O44   1.262       .  A
C43        C1154   1.481       .  S
O45          C60   1.259       .  A
O45         Al53   1.882       .  S
C46          O56   1.262       .  A
C46          O47   1.267       .  A
C46        C1044   1.476       .  S
O47         Al49   1.929       .  S
O48          C50   1.254       .  A
O48         Al49   1.888       .  S
Al49         O57   1.910       .  S
Al49         O59   1.950       .  S
Al49         O58   1.795       .  S
C50          O63   1.259       .  A
C50         C990   1.472       .  S
O51          C61   1.259       .  A
O51         Al53   1.898       .  S
O52          C65   1.259       .  A
O52         Al62   1.899       .  S
Al53         O66   1.916       .  S
Al53         O63   1.907       .  S
Al53         O58   1.785       .  S
O54          C61   1.265       .  A
O54         Al62   1.931       .  S
O55          C64   1.258       .  A
O55         Al62   1.899       .  S
O56         Al62   1.878       .  S
O57          C64   1.261       .  A
O58         Al62   1.784       .  S
O59          C60   1.270       .  A
C60        C1008   1.476       .  S
C61        C1136   1.481       .  S
C64         C974   1.476       .  S
C65          O66   1.263       .  A
C65        C1064   1.476       .  S
O67          C82   1.258       .  A
O67         Al75   1.881       .  S
C68          O78   1.267       .  A
C68          O69   1.275       .  A
C68         C936   1.481       .  S
O69         Al71   1.952       .  S
O70          C72   1.255       .  A
O70         Al71   1.886       .  S
Al71         O79   1.919       .  S
Al71         O81   1.938       .  S
Al71         O80   1.791       .  S
C72          O85   1.261       .  A
C72        C1082   1.482       .  S
O73          C83   1.260       .  A
O73         Al75   1.921       .  S
O74          C87   1.266       .  A
O74         Al84   1.900       .  S
Al75         O88   1.931       .  S
Al75         O85   1.922       .  S
Al75         O80   1.788       .  S
O76          C83   1.256       .  A
O76         Al84   1.906       .  S
O77          C86   1.253       .  A
O77         Al84   1.891       .  S
O78         Al84   1.877       .  S
O79          C86   1.255       .  A
O80         Al84   1.787       .  S
O81          C82   1.268       .  A
C82        C1010   1.479       .  S
C83         C956   1.477       .  S
C86         C902   1.485       .  S
C87          O88   1.271       .  A
C87         C918   1.477       .  S
O89         C104   1.261       .  A
O89         Al97   1.880       .  S
C90         O100   1.261       .  A
C90          O91   1.263       .  A
C90         C866   1.475       .  S
O91         Al93   1.899       .  S
O92          C94   1.259       .  A
O92         Al93   1.903       .  S
Al93        O101   1.898       .  S
Al93        O103   1.913       .  S
Al93        O102   1.785       .  S
C94         O107   1.258       .  A
C94         C830   1.476       .  S
O95         C105   1.256       .  A
O95         Al97   1.876       .  S
O96         C109   1.261       .  A
O96        Al106   1.915       .  S
Al97        O110   1.911       .  S
Al97        O107   1.909       .  S
Al97        O102   1.783       .  S
O98         C105   1.270       .  A
O98        Al106   1.958       .  S
O99         C108   1.266   1_455  A
O99        Al106   1.938       .  S
O100       Al106   1.903       .  S
O101        C108   1.261   1_455  A
O102       Al106   1.788       .  S
O103        C104   1.263       .  A
C104        C882   1.464       .  S
C105        C954   1.479       .  S
C108        C810   1.489       .  S
C109        O110   1.261       .  A
C109        C848   1.471       .  S
O111        C126   1.258       .  A
O111       Al119   1.882       .  S
C112        O122   1.261       .  A
C112        O113   1.268       .  A
C112        C920   1.473       .  S
O113       Al115   1.930       .  S
O114        C116   1.257       .  A
O114       Al115   1.886       .  S
Al115       O123   1.896       .  S
Al115       O125   1.939       .  S
Al115       O124   1.781       .  S
C116        O129   1.261       .  A
C116        C992   1.473       .  S
O117        C127   1.256       .  A
O117       Al119   1.880       .  S
O118        C131   1.262       .  A
O118       Al128   1.909       .  S
Al119       O132   1.924       .  S
Al119       O129   1.919       .  S
Al119       O124   1.777       .  S
O120        C127   1.268       .  A
O120       Al128   1.948       .  S
O121        C130   1.264       .  A
O121       Al128   1.931       .  S
O122       Al128   1.887       .  S
O123        C130   1.259       .  A
O124       Al128   1.783       .  S
O125        C126   1.267       .  A
C126        C938   1.472       .  S
C127        C792   1.475       .  S
C130        C776   1.480   1_455  S
C131        O132   1.265       .  A
C131        C846   1.473       .  S
O133        C148   1.270       .  A
O133       Al141   1.925       .  S
C134        O144   1.275       .  A
C134        O135   1.266       .  A
C134       C1206   1.479       .  S
O135       Al137   1.891       .  S
O136        C138   1.261       .  A
O136       Al137   1.920       .  S
Al137       O145   1.927       .  S
Al137       O147   1.914       .  S
Al137       O146   1.789       .  S
C138        O151   1.261       .  A
C138        C828   1.476       .  S
O139        C149   1.263       .  A
O139       Al141   1.932       .  S
O140        C153   1.267       .  A
O140       Al150   1.940       .  S
Al141       O154   1.882       .  S
Al141       O151   1.907       .  S
Al141       O146   1.784       .  S
O142        C149   1.252       .  A
O142       Al150   1.871       .  S
O143        C152   1.253       .  A
O143       Al150   1.896       .  S
O144       Al150   1.944       .  S
O145        C152   1.258       .  A
O146       Al150   1.778       .  S
O147        C148   1.269       .  A
C148        C758   1.472       .  S
C149       C1100   1.475       .  S
C152        C738   1.478   1_565  S
C153        O154   1.257       .  A
C153       C1190   1.481       .  S
O155        C170   1.269       .  A
O155       Al163   1.929       .  S
C156        O166   1.268       .  A
C156        O157   1.261       .  A
C156        C884   1.465       .  S
O157       Al159   1.887       .  S
O158        C160   1.267       .  A
O158       Al159   1.947       .  S
Al159       O167   1.951       .  S
Al159       O169   1.904       .  S
Al159       O168   1.784       .  S
C160        O173   1.257       .  A
C160       C1170   1.477       .  S
O161        C171   1.266       .  A
O161       Al163   1.936       .  S
O162        C175   1.262       .  A
O162       Al172   1.924       .  S
Al163       O176   1.879       .  S
Al163       O173   1.886       .  S
Al163       O168   1.773       .  S
O164        C171   1.256       .  A
O164       Al172   1.881       .  S
O165        C174   1.257       .  A
O165       Al172   1.890       .  S
O166       Al172   1.920       .  S
O167        C174   1.267       .  A
O168       Al172   1.774       .  S
O169        C170   1.264       .  A
C170        C756   1.471       .  S
C171        C794   1.474       .  S
C174        C722   1.478   1_565  S
C175        O176   1.258       .  A
C175        C864   1.473       .  S
O177        C192   1.255       .  A
O177       Al185   1.882       .  S
C178        O188   1.264       .  A
C178        O179   1.262       .  A
C178        C684   1.473       .  S
O179       Al181   1.916       .  S
O180        C182   1.257       .  A
O180       Al181   1.880       .  S
Al181       O189   1.891       .  S
Al181       O191   1.928       .  S
Al181       O190   1.782       .  S
C182        O195   1.265       .  A
C182        C666   1.474       .  S
O183        C193   1.258       .  A
O183       Al185   1.889       .  S
O184        C197   1.265       .  A
O184       Al194   1.913       .  S
Al185       O198   1.911       .  S
Al185       O195   1.937       .  S
Al185       O190   1.779       .  S
O186        C193   1.268       .  A
O186       Al194   1.947       .  S
O187        C196   1.270       .  A
O187       Al194   1.953       .  S
O188       Al194   1.901       .  S
O189        C196   1.260       .  A
O190       Al194   1.790       .  S
O191        C192   1.263       .  A
C192        C702   1.468       .  S
C193        C632   1.484       .  S
C196       C1026   1.482       .  S
C197        O198   1.265       .  A
C197        C648   1.480       .  S
O199        C214   1.255       .  A
O199       Al207   1.868       .  S
C200        O210   1.262       .  A
C200        O201   1.263       .  A
C200        C578   1.472       .  S
O201       Al203   1.906       .  S
O202        C204   1.256       .  A
O202       Al203   1.882       .  S
Al203       O211   1.885       .  S
Al203       O213   1.909       .  S
Al203       O212   1.785       .  S
C204        O217   1.262       .  A
C204        C596   1.471       .  S
O205        C215   1.254       .  A
O205       Al207   1.882       .  S
O206        C219   1.266       .  A
O206       Al216   1.912       .  S
Al207       O220   1.914       .  S
Al207       O217   1.919       .  S
Al207       O212   1.784       .  S
O208        C215   1.264       .  A
O208       Al216   1.930       .  S
O209        C218   1.265       .  A
O209       Al216   1.941       .  S
O210       Al216   1.904       .  S
O211        C218   1.259       .  A
O212       Al216   1.794       .  S
O213        C214   1.258       .  A
C214        C558   1.462       .  S
C215        C612   1.477       .  S
C218        C774   1.484       .  S
C219        O220   1.266       .  A
C219        C650   1.479       .  S
O221        C236   1.262       .  A
O221       Al229   1.896       .  S
C222        O232   1.261       .  A
C222        O223   1.262       .  A
C222        C560   1.465       .  S
O223       Al225   1.907       .  S
O224        C226   1.253       .  A
O224       Al225   1.887       .  S
Al225       O233   1.912       .  S
Al225       O235   1.915       .  S
Al225       O234   1.807       .  S
C226        O239   1.258       .  A
C226        C524   1.478       .  S
O227        C237   1.262       .  A
O227       Al229   1.925       .  S
O228        C241   1.259       .  A
O228       Al238   1.893       .  S
Al229       O242   1.909       .  S
Al229       O239   1.908       .  S
Al229       O234   1.801       .  S
O230        C237   1.257       .  A
O230       Al238   1.900       .  S
O231        C240   1.252       .  A
O231       Al238   1.883       .  S
O232       Al238   1.875       .  S
O233        C240   1.257       .  A
O234       Al238   1.796       .  S
O235        C236   1.263       .  A
C236        C540   1.479       .  S
C237        C630   1.483       .  S
C240        C900   1.474       .  S
C241        O242   1.263       .  A
C241        C576   1.473       .  S
O243        C258   1.261       .  A
O243       Al251   1.890       .  S
C244        O254   1.261       .  A
C244        O245   1.266       .  A
C244        C488   1.477       .  S
O245       Al247   1.931       .  S
O246        C248   1.258       .  A
O246       Al247   1.897       .  S
Al247       O255   1.912       .  S
Al247       O257   1.941       .  S
Al247       O256   1.786       .  S
C248        O261   1.263       .  A
C248        C594   1.476       .  S
O249        C259   1.259       .  A
O249       Al251   1.896       .  S
O250        C263   1.261       .  A
O250       Al260   1.901       .  S
Al251       O264   1.923       .  S
Al251       O261   1.915       .  S
Al251       O256   1.781       .  S
O252        C259   1.265       .  A
O252       Al260   1.929       .  S
O253        C262   1.263       .  A
O253       Al260   1.911       .  S
O254       Al260   1.885       .  S
O255        C262   1.262       .  A
O256       Al260   1.781       .  S
O257        C258   1.267       .  A
C258        C542   1.481       .  S
C259        C506   1.479       .  S
C262        C720   1.485   1_655  S
C263        O264   1.265       .  A
C263        C470   1.479       .  S
O265        C280   1.262       .  A
O265       Al273   1.904       .  S
C266        O276   1.265       .  A
C266        O267   1.261       .  A
C266        C432   1.479       .  S
O267       Al269   1.886       .  S
O268        C270   1.265       .  A
O268       Al269   1.924       .  S
Al269       O277   1.915       .  S
Al269       O279   1.905       .  S
Al269       O278   1.788       .  S
C270        O283   1.259       .  A
C270        C398   1.479       .  S
O271        C281   1.262       .  A
O271       Al273   1.913       .  S
O272        C285   1.266       .  A
O272       Al282   1.939       .  S
Al273       O286   1.891       .  S
Al273       O283   1.896       .  S
Al273       O278   1.785       .  S
O274        C281   1.260       .  A
O274       Al282   1.903       .  S
O275        C284   1.262       .  A
O275       Al282   1.914       .  S
O276       Al282   1.930       .  S
O277        C284   1.263       .  A
O278       Al282   1.790       .  S
O279        C280   1.260       .  A
C280        C452   1.478       .  S
C281        C504   1.479       .  S
C284       C1116   1.488   1_545  S
C285        O286   1.260       .  A
C285        C414   1.481       .  S
O287        C302   1.256       .  A
O287       Al295   1.874       .  S
C288        O298   1.263       .  A
C288        O289   1.269       .  A
C288        C468   1.477       .  S
O289       Al291   1.929       .  S
O290        C292   1.257       .  A
O290       Al291   1.899       .  S
Al291       O299   1.896       .  S
Al291       O301   1.929       .  S
Al291       O300   1.790       .  S
C292        O305   1.255       .  A
C292        C522   1.476       .  S
O293        C303   1.256       .  A
O293       Al295   1.889       .  S
O294        C307   1.268       .  A
O294       Al304   1.924       .  S
Al295       O308   1.903       .  S
Al295       O305   1.900       .  S
Al295       O300   1.783       .  S
O296        C303   1.263       .  A
O296       Al304   1.929       .  S
O297        C306   1.262       .  A
O297       Al304   1.936       .  S
O298       Al304   1.893       .  S
O299        C306   1.256       .  A
O300       Al304   1.797       .  S
O301        C302   1.266       .  A
C302        C486   1.472       .  S
C303        C378   1.474       .  S
C306        C812   1.487       .  S
C307        O308   1.264       .  A
C307        C416   1.480       .  S
O309        C324   1.262       .  A
O309       Al317   1.888       .  S
C310        O320   1.262       .  A
C310        O311   1.266       .  A
C310        C704   1.476       .  S
O311       Al313   1.928       .  S
O312        C314   1.259       .  A
O312       Al313   1.915       .  S
Al313       O321   1.927       .  S
Al313       O323   1.939       .  S
Al313       O322   1.794       .  S
C314        O327   1.255       .  A
C314        C396   1.476       .  S
O315        C325   1.265       .  A
O315       Al317   1.917       .  S
O316        C329   1.261       .  A
O316       Al326   1.913       .  S
Al317       O330   1.904       .  S
Al317       O327   1.899       .  S
Al317       O322   1.789       .  S
O318        C325   1.261       .  A
O318       Al326   1.905       .  S
O319        C328   1.256       .  A
O319       Al326   1.884       .  S
O320       Al326   1.877       .  S
O321        C328   1.261       .  A
O322       Al326   1.783       .  S
O323        C324   1.270       .  A
C324        C362   1.478       .  S
C325        C614   1.473       .  S
C328        C972   1.489       .  S
C329        O330   1.261       .  A
C329        C686   1.478       .  S
O331        C346   1.258       .  A
O331       Al339   1.876       .  S
C332        O342   1.262       .  A
C332        O333   1.267       .  A
C332        C450   1.478       .  S
O333       Al335   1.935       .  S
O334        C336   1.256       .  A
O334       Al335   1.896       .  S
Al335       O343   1.903       .  S
Al335       O345   1.946       .  S
Al335       O344   1.788       .  S
C336        O349   1.261       .  A
C336        C668   1.479       .  S
O337        C347   1.258       .  A
O337       Al339   1.895       .  S
O338        C351   1.265       .  A
O338       Al348   1.911       .  S
Al339       O352   1.906       .  S
Al339       O349   1.913       .  S
Al339       O344   1.779       .  S
O340        C347   1.263       .  A
O340       Al348   1.923       .  S
O341        C350   1.263       .  A
O341       Al348   1.921       .  S
O342       Al348   1.881       .  S
O343        C350   1.259       .  A
O344       Al348   1.789       .  S
O345        C346   1.268       .  A
C346        C360   1.480       .  S
C347        C380   1.475       .  S
C350        C740   1.484       .  S
C351        O352   1.262       .  A
C351        C434   1.469       .  S
C353        C361   1.491       .  S
C353        C354   1.403       .  A
C353        C358   1.409   1_556  A
C354        C355   1.399   1_556  A
C354        H363   1.084       .  S
C355        C356   1.404       .  A
C355        H364   1.083   1_554  S
C356        C359   1.486       .  S
C356        C357   1.406       .  A
C357        C358   1.402       .  A
C357        H365   1.082       .  S
C358        H366   1.082       .  S
C359        H367   1.088       .  S
C359        C360   1.348       .  D
C360        H368   1.085       .  S
C361        H369   1.087       .  S
C361        C362   1.346       .  D
C362        H370   1.085       .  S
C371        C379   1.488       .  S
C371        C372   1.404       .  A
C371        C376   1.408       .  A
C372        C373   1.398       .  A
C372        H381   1.083       .  S
C373        C374   1.403       .  A
C373        H382   1.083       .  S
C374        C377   1.486       .  S
C374        C375   1.407       .  A
C375        C376   1.398       .  A
C375        H383   1.082       .  S
C376        H384   1.081       .  S
C377        H385   1.087       .  S
C377        C378   1.345       .  D
C378        H386   1.085       .  S
C379        H387   1.087       .  S
C379        C380   1.347       .  D
C380        H388   1.084       .  S
C389        C397   1.485       .  S
C389        C390   1.402       .  A
C389        C394   1.408       .  A
C390        C391   1.398       .  A
C390        H399   1.083       .  S
C391        C392   1.406       .  A
C391        H400   1.083       .  S
C392        C395   1.484       .  S
C392        C393   1.403       .  A
C393        C394   1.403       .  A
C393        H401   1.083       .  S
C394        H402   1.082       .  S
C395        H403   1.086       .  S
C395        C396   1.343       .  D
C396        H404   1.087       .  S
C397        H405   1.087       .  S
C397        C398   1.345       .  D
C398        H406   1.086       .  S
C407        C415   1.485       .  S
C407        C408   1.404       .  A
C407        C412   1.406       .  A
C408        C409   1.400       .  A
C408        H417   1.084       .  S
C409        C410   1.406       .  A
C409        H418   1.083       .  S
C410        C413   1.487       .  S
C410        C411   1.405       .  A
C411        C412   1.403       .  A
C411        H419   1.083       .  S
C412        H420   1.083       .  S
C413        H421   1.087       .  S
C413        C414   1.348       .  D
C414        H422   1.086       .  S
C415        H423   1.088       .  S
C415        C416   1.349       .  D
C416        H424   1.085       .  S
C425        C433   1.486       .  S
C425        C426   1.403   1_554  A
C425        C430   1.405   1_554  A
C426        C427   1.402       .  A
C426        H435   1.083   1_556  S
C427        C428   1.410       .  A
C427        H436   1.080       .  S
C428        C431   1.491       .  S
C428        C429   1.405       .  A
C429        C430   1.396       .  A
C429        H437   1.084       .  S
C430        H438   1.083       .  S
C431        H439   1.087       .  S
C431        C432   1.349       .  D
C432        H440   1.083       .  S
C433        H441   1.087       .  S
C433        C434   1.342       .  D
C434        H442   1.086       .  S
C443        C451   1.481       .  S
C443        C444   1.402       .  A
C443        C448   1.407       .  A
C444        C445   1.394       .  A
C444        H453   1.084       .  S
C445        C446   1.402       .  A
C445        H454   1.084       .  S
C446        C449   1.483       .  S
C446        C447   1.408       .  A
C447        C448   1.402       .  A
C447        H455   1.082       .  S
C448        H456   1.082       .  S
C449        H457   1.088       .  S
C449        C450   1.347       .  D
C450        H458   1.085       .  S
C451        H459   1.088       .  S
C451        C452   1.347       .  D
C452        H460   1.085       .  S
C461        C469   1.486   1_554  S
C461        C462   1.403       .  A
C461        C466   1.408       .  A
C462        C463   1.397       .  A
C462        H471   1.084       .  S
C463        C464   1.406       .  A
C463        H472   1.082       .  S
C464        C467   1.486       .  S
C464        C465   1.404       .  A
C465        C466   1.401       .  A
C465        H473   1.083       .  S
C466        H474   1.082       .  S
C467        H475   1.087       .  S
C467        C468   1.346       .  D
C468        H476   1.086       .  S
C469        H477   1.087       .  S
C469        C470   1.347       .  D
C470        H478   1.085       .  S
C479        C487   1.489       .  S
C479        C480   1.404       .  A
C479        C484   1.410       .  A
C480        C481   1.395       .  A
C480        H489   1.084       .  S
C481        C482   1.406       .  A
C481        H490   1.082       .  S
C482        C485   1.486       .  S
C482        C483   1.402       .  A
C483        C484   1.401       .  A
C483        H491   1.083       .  S
C484        H492   1.079       .  S
C485        H493   1.086       .  S
C485        C486   1.344       .  D
C486        H494   1.086       .  S
C487        H495   1.087       .  S
C487        C488   1.348       .  D
C488        H496   1.083       .  S
C497        C505   1.487       .  S
C497        C498   1.403       .  A
C497        C502   1.408       .  A
C498        C499   1.398       .  A
C498        H507   1.083       .  S
C499        C500   1.407       .  A
C499        H508   1.082       .  S
C500        C503   1.487       .  S
C500        C501   1.404       .  A
C501        C502   1.401       .  A
C501        H509   1.083       .  S
C502        H510   1.082       .  S
C503        H511   1.087       .  S
C503        C504   1.348       .  D
C504        H512   1.085       .  S
C505        H513   1.087       .  S
C505        C506   1.346       .  D
C506        H514   1.085       .  S
C515        C523   1.488       .  S
C515        C516   1.403       .  A
C515        C520   1.409       .  A
C516        C517   1.400       .  A
C516        H525   1.083       .  S
C517        C518   1.407       .  A
C517        H526   1.082       .  S
C518        C521   1.486       .  S
C518        C519   1.403       .  A
C519        C520   1.400       .  A
C519        H527   1.083       .  S
C520        H528   1.082       .  S
C521        H529   1.087       .  S
C521        C522   1.344       .  D
C522        H530   1.086       .  S
C523        H531   1.087       .  S
C523        C524   1.345       .  D
C524        H532   1.086       .  S
C533        C541   1.486       .  S
C533        C534   1.404   1_556  A
C533        C538   1.407       .  A
C534        C535   1.400       .  A
C534        H543   1.083       .  S
C535        C536   1.407       .  A
C535        H544   1.082       .  S
C536        C539   1.487       .  S
C536        C537   1.404   1_554  A
C537        C538   1.401       .  A
C537        H545   1.083       .  S
C538        H546   1.082       .  S
C539        H547   1.087       .  S
C539        C540   1.346       .  D
C540        H548   1.086       .  S
C541        H549   1.087       .  S
C541        C542   1.347       .  D
C542        H550   1.086       .  S
C551        C559   1.470       .  S
C551        C552   1.401       .  A
C551        C556   1.405       .  A
C552        C553   1.394       .  A
C552        H561   1.083       .  S
C553        C554   1.403       .  A
C553        H562   1.082       .  S
C554        C557   1.469       .  S
C554        C555   1.401       .  A
C555        C556   1.393       .  A
C555        H563   1.084       .  S
C556        H564   1.083       .  S
C557        H565   1.088       .  S
C557        C558   1.341       .  D
C558        H566   1.086       .  S
C559        H567   1.087       .  S
C559        C560   1.340       .  D
C560        H568   1.086       .  S
C569        C577   1.474       .  S
C569        C570   1.404       .  A
C569        C574   1.401       .  A
C570        C571   1.400       .  A
C570        H579   1.083       .  S
C571        C572   1.407       .  A
C571        H580   1.083   1_556  S
C572        C575   1.477   1_556  S
C572        C573   1.401       .  A
C573        C574   1.395       .  A
C573        H581   1.083       .  S
C574        H582   1.084       .  S
C575        H583   1.087       .  S
C575        C576   1.343       .  D
C576        H584   1.086       .  S
C577        H585   1.088       .  S
C577        C578   1.345       .  D
C578        H586   1.086       .  S
C587        C595   1.484       .  S
C587        C588   1.404       .  A
C587        C592   1.406       .  A
C588        C589   1.401       .  A
C588        H597   1.083       .  S
C589        C590   1.408       .  A
C589        H598   1.082       .  S
C590        C593   1.482       .  S
C590        C591   1.401       .  A
C591        C592   1.394       .  A
C591        H599   1.084       .  S
C592        H600   1.082       .  S
C593        H601   1.087       .  S
C593        C594   1.345       .  D
C594        H602   1.085       .  S
C595        H603   1.087       .  S
C595        C596   1.344       .  D
C596        H604   1.086       .  S
C605        C613   1.490       .  S
C605        C606   1.403       .  A
C605        C610   1.408       .  A
C606        C607   1.403       .  A
C606        H615   1.083       .  S
C607        C608   1.412       .  A
C607        H616   1.080       .  S
C608        C611   1.492       .  S
C608        C609   1.402       .  A
C609        C610   1.395       .  A
C609        H617   1.083       .  S
C610        H618   1.082       .  S
C611        H619   1.087       .  S
C611        C612   1.344       .  D
C612        H620   1.083       .  S
C613        H621   1.086       .  S
C613        C614   1.344       .  D
C614        H622   1.085       .  S
C623        C631   1.500       .  S
C623        C624   1.404       .  A
C623        C628   1.412       .  A
C624        C625   1.400       .  A
C624        H633   1.084       .  S
C625        C626   1.410       .  A
C625        H634   1.080       .  S
C626        C629   1.500       .  S
C626        C627   1.405       .  A
C627        C628   1.405       .  A
C627        H635   1.083       .  S
C628        H636   1.079       .  S
C629        H637   1.087       .  S
C629        C630   1.348       .  D
C630        H638   1.084       .  S
C631        H639   1.087       .  S
C631        C632   1.348       .  D
C632        H640   1.082       .  S
C641        C649   1.486       .  S
C641        C642   1.405       .  A
C641        C646   1.405       .  A
C642        C643   1.403       .  A
C642        H651   1.084       .  S
C643        C644   1.406       .  A
C643        H652   1.083       .  S
C644        C647   1.485       .  S
C644        C645   1.404       .  A
C645        C646   1.400       .  A
C645        H653   1.083       .  S
C646        H654   1.083       .  S
C647        H655   1.088       .  S
C647        C648   1.347       .  D
C648        H656   1.086       .  S
C649        H657   1.088       .  S
C649        C650   1.347       .  D
C650        H658   1.086       .  S
C659        C667   1.486       .  S
C659        C660   1.402       .  A
C659        C664   1.409       .  A
C660        C661   1.394       .  A
C660        H669   1.084       .  S
C661        C662   1.406       .  A
C661        H670   1.082       .  S
C662        C665   1.486       .  S
C662        C663   1.404       .  A
C663        C664   1.404       .  A
C663        H671   1.083       .  S
C664        H672   1.082       .  S
C665        H673   1.087       .  S
C665        C666   1.345       .  D
C666        H674   1.086       .  S
C667        H675   1.087       .  S
C667        C668   1.346       .  D
C668        H676   1.085       .  S
C677        C685   1.483   1_554  S
C677        C678   1.404       .  A
C677        C682   1.406       .  A
C678        C679   1.394       .  A
C678        H687   1.083       .  S
C679        C680   1.400       .  A
C679        H688   1.084       .  S
C680        C683   1.485       .  S
C680        C681   1.410       .  A
C681        C682   1.401       .  A
C681        H689   1.082       .  S
C682        H690   1.081       .  S
C683        H691   1.087       .  S
C683        C684   1.343       .  D
C684        H692   1.085       .  S
C685        H693   1.088       .  S
C685        C686   1.348       .  D
C686        H694   1.084       .  S
C695        C703   1.486       .  S
C695        C696   1.405       .  A
C695        C700   1.409       .  A
C696        C697   1.394       .  A
C696        H705   1.084       .  S
C697        C698   1.403       .  A
C697        H706   1.083       .  S
C698        C701   1.480       .  S
C698        C699   1.402       .  A
C699        C700   1.400       .  A
C699        H707   1.083       .  S
C700        H708   1.080       .  S
C701        H709   1.087       .  S
C701        C702   1.343       .  D
C702        H710   1.087       .  S
C703        H711   1.088       .  S
C703        C704   1.348       .  D
C704        H712   1.083       .  S
C713        C721   1.493       .  S
C713        C714   1.406       .  A
C713        C718   1.406       .  A
C714        C715   1.406       .  A
C714        H723   1.083       .  S
C715        C716   1.409       .  A
C715        H724   1.080       .  S
C716        C719   1.493       .  S
C716        C717   1.404       .  A
C717        C718   1.395       .  A
C717        H725   1.084       .  S
C718        H726   1.082       .  S
C719        H727   1.087   1_455  S
C719        C720   1.351       .  D
C720        H728   1.083       .  S
C721        H729   1.087       .  S
C721        C722   1.348       .  D
C722        H730   1.086       .  S
C731        C739   1.494       .  S
C731        C732   1.404       .  A
C731        C736   1.410       .  A
C732        C733   1.397       .  A
C732        H741   1.083       .  S
C733        C734   1.407       .  A
C733        H742   1.081       .  S
C734        C737   1.493       .  S
C734        C735   1.406       .  A
C735        C736   1.405       .  A
C735        H743   1.083       .  S
C736        H744   1.081       .  S
C737        H745   1.087       .  S
C737        C738   1.349       .  D
C738        H746   1.085       .  S
C739        H747   1.087       .  S
C739        C740   1.349       .  D
C740        H748   1.084       .  S
C749        C757   1.478       .  S
C749        C750   1.403       .  A
C749        C754   1.405       .  A
C750        C751   1.399       .  A
C750        H759   1.083       .  S
C751        C752   1.405       .  A
C751        H760   1.083       .  S
C752        C755   1.478       .  S
C752        C753   1.403       .  A
C753        C754   1.399       .  A
C753        H761   1.084       .  S
C754        H762   1.083       .  S
C755        H763   1.088       .  S
C755        C756   1.343       .  D
C756        H764   1.086       .  S
C757        H765   1.088       .  S
C757        C758   1.344       .  D
C758        H766   1.086       .  S
C767        C775   1.492       .  S
C767        C768   1.408       .  A
C767        C772   1.406       .  A
C768        C769   1.407       .  A
C768        H777   1.083       .  S
C769        C770   1.407       .  A
C769        H778   1.082       .  S
C770        C773   1.488       .  S
C770        C771   1.403       .  A
C771        C772   1.395       .  A
C771        H779   1.084       .  S
C772        H780   1.082       .  S
C773        H781   1.088       .  S
C773        C774   1.349       .  D
C774        H782   1.085       .  S
C775        H783   1.087       .  S
C775        C776   1.349       .  D
C776        H784   1.086       .  S
C785        C793   1.487       .  S
C785        C786   1.402       .  A
C785        C790   1.408       .  A
C786        C787   1.400       .  A
C786        H795   1.083       .  S
C787        C788   1.410       .  A
C787        H796   1.082       .  S
C788        C791   1.488       .  S
C788        C789   1.402       .  A
C789        C790   1.398       .  A
C789        H797   1.083       .  S
C790        H798   1.082       .  S
C791        H799   1.087       .  S
C791        C792   1.343       .  D
C792        H800   1.085       .  S
C793        H801   1.087       .  S
C793        C794   1.344       .  D
C794        H802   1.086       .  S
C803        C811   1.499       .  S
C803        C804   1.408       .  A
C803        C808   1.408       .  A
C804        C805   1.408       .  A
C804        H813   1.083       .  S
C805        C806   1.409       .  A
C805        H814   1.082       .  S
C806        C809   1.496       .  S
C806        C807   1.405       .  A
C807        C808   1.401       .  A
C807        H815   1.084       .  S
C808        H816   1.082   1_565  S
C809        H817   1.087       .  S
C809        C810   1.352       .  D
C810        H818   1.085       .  S
C811        H819   1.087       .  S
C811        C812   1.351   1_565  D
C812        H820   1.085       .  S
C821        C829   1.488       .  S
C821        C822   1.402       .  A
C821        C826   1.409       .  A
C822        C823   1.398       .  A
C822        H831   1.083       .  S
C823        C824   1.408       .  A
C823        H832   1.082       .  S
C824        C827   1.488       .  S
C824        C825   1.403       .  A
C825        C826   1.400       .  A
C825        H833   1.082       .  S
C826        H834   1.082       .  S
C827        H835   1.084       .  S
C827        C828   1.345       .  D
C828        H836   1.083       .  S
C829        H837   1.086       .  S
C829        C830   1.344       .  D
C830        H838   1.085       .  S
C839        C847   1.482       .  S
C839        C840   1.404       .  A
C839        C844   1.406       .  A
C840        C841   1.400       .  A
C840        H849   1.083       .  S
C841        C842   1.405   1_554  A
C841        H850   1.083       .  S
C842        C845   1.481       .  S
C842        C843   1.403       .  A
C843        C844   1.399   1_556  A
C843        H851   1.083       .  S
C844        H852   1.083       .  S
C845        H853   1.088       .  S
C845        C846   1.343       .  D
C846        H854   1.086   1_455  S
C847        H855   1.088       .  S
C847        C848   1.344       .  D
C848        H856   1.086   1_455  S
C857        C865   1.478       .  S
C857        C858   1.407       .  A
C857        C862   1.402       .  A
C858        C859   1.400       .  A
C858        H867   1.082       .  S
C859        C860   1.407       .  A
C859        H868   1.083       .  S
C860        C863   1.476       .  S
C860        C861   1.400       .  A
C861        C862   1.393       .  A
C861        H869   1.084       .  S
C862        H870   1.084       .  S
C863        H871   1.087       .  S
C863        C864   1.343       .  D
C864        H872   1.086       .  S
C865        H873   1.087       .  S
C865        C866   1.346       .  D
C866        H874   1.085       .  S
C875        C883   1.472       .  S
C875        C876   1.401       .  A
C875        C880   1.406       .  A
C876        C877   1.395       .  A
C876        H885   1.083       .  S
C877        C878   1.405       .  A
C877        H886   1.082       .  S
C878        C881   1.472   1_556  S
C878        C879   1.401       .  A
C879        C880   1.393       .  A
C879        H887   1.084       .  S
C880        H888   1.083       .  S
C881        H889   1.088       .  S
C881        C882   1.341       .  D
C882        H890   1.086       .  S
C883        H891   1.087       .  S
C883        C884   1.341       .  D
C884        H892   1.086       .  S
C893        C901   1.486       .  S
C893        C894   1.403       .  A
C893        C898   1.406       .  A
C894        C895   1.395       .  A
C894        H903   1.084       .  S
C895        C896   1.406       .  A
C895        H904   1.082       .  S
C896        C899   1.495       .  S
C896        C897   1.409       .  A
C897        C898   1.407       .  A
C897        H905   1.083       .  S
C898        H906   1.082       .  S
C899        H907   1.087       .  S
C899        C900   1.349   1_455  D
C900        H908   1.085       .  S
C901        H909   1.088       .  S
C901        C902   1.350       .  D
C902        H910   1.085       .  S
C911        C919   1.484       .  S
C911        C912   1.403       .  A
C911        C916   1.406       .  A
C912        C913   1.401       .  A
C912        H921   1.083       .  S
C913        C914   1.408       .  A
C913        H922   1.081       .  S
C914        C917   1.484       .  S
C914        C915   1.403       .  A
C915        C916   1.395       .  A
C915        H923   1.084       .  S
C916        H924   1.082       .  S
C917        H925   1.087       .  S
C917        C918   1.346       .  D
C918        H926   1.085       .  S
C919        H927   1.087       .  S
C919        C920   1.345       .  D
C920        H928   1.086       .  S
C929        C937   1.486   1_554  S
C929        C930   1.404       .  A
C929        C934   1.404       .  A
C930        C931   1.404       .  A
C930        H939   1.083       .  S
C931        C932   1.409       .  A
C931        H940   1.081       .  S
C932        C935   1.488       .  S
C932        C933   1.404       .  A
C933        C934   1.394       .  A
C933        H941   1.084       .  S
C934        H942   1.083       .  S
C935        H943   1.087       .  S
C935        C936   1.349       .  D
C936        H944   1.084       .  S
C937        H945   1.087       .  S
C937        C938   1.345       .  D
C938        H946   1.086   1_556  S
C947        C955   1.490       .  S
C947        C948   1.401       .  A
C947        C952   1.408       .  A
C948        C949   1.402       .  A
C948        H957   1.084       .  S
C949        C950   1.413       .  A
C949        H958   1.080       .  S
C950        C953   1.496       .  S
C950        C951   1.403       .  A
C951        C952   1.399       .  A
C951        H959   1.083       .  S
C952        H960   1.082       .  S
C953        H961   1.087       .  S
C953        C954   1.344       .  D
C954        H962   1.083       .  S
C955        H963   1.087       .  S
C955        C956   1.344       .  D
C956        H964   1.086       .  S
C965        C973   1.497       .  S
C965        C966   1.410       .  A
C965        C970   1.406       .  A
C966        C967   1.409       .  A
C966        H975   1.083       .  S
C967        C968   1.406       .  A
C967        H976   1.082       .  S
C968        C971   1.487       .  S
C968        C969   1.403       .  A
C969        C970   1.394       .  A
C969        H977   1.084       .  S
C970        H978   1.081       .  S
C971        H979   1.088       .  S
C971        C972   1.353       .  D
C972        H980   1.085       .  S
C973        H981   1.087       .  S
C973        C974   1.350       .  D
C974        H982   1.084       .  S
C983        C991   1.480       .  S
C983        C984   1.402       .  A
C983        C988   1.407       .  A
C984        C985   1.397       .  A
C984        H993   1.083       .  S
C985        C986   1.406       .  A
C985        H994   1.083       .  S
C986        C989   1.479       .  S
C986        C987   1.402       .  A
C987        C988   1.398       .  A
C987        H995   1.083       .  S
C988        H996   1.082       .  S
C989        H997   1.087       .  S
C989        C990   1.343       .  D
C990        H998   1.086       .  S
C991        H999   1.087       .  S
C991        C992   1.344       .  D
C992       H1000   1.086       .  S
C1001      C1009   1.492       .  S
C1001      C1002   1.404       .  A
C1001      C1006   1.409       .  A
C1002      C1003   1.402       .  A
C1002      H1011   1.083       .  S
C1003      C1004   1.408       .  A
C1003      H1012   1.082       .  S
C1004      C1007   1.492       .  S
C1004      C1005   1.404       .  A
C1005      C1006   1.401       .  A
C1005      H1013   1.084       .  S
C1006      H1014   1.082       .  S
C1007      H1015   1.087       .  S
C1007      C1008   1.346       .  D
C1008      H1016   1.086       .  S
C1009      H1017   1.087       .  S
C1009      C1010   1.345       .  D
C1010      H1018   1.087       .  S
C1019      C1027   1.494       .  S
C1019      C1020   1.404       .  A
C1019      C1024   1.409       .  A
C1020      C1021   1.399       .  A
C1020      H1029   1.083       .  S
C1021      C1022   1.408       .  A
C1021      H1030   1.082       .  S
C1022      C1025   1.494       .  S
C1022      C1023   1.406       .  A
C1023      C1024   1.406       .  A
C1023      H1031   1.083       .  S
C1024      H1032   1.082       .  S
C1025      H1033   1.086       .  S
C1025      C1026   1.349       .  D
C1026      H1034   1.086       .  S
C1027      H1035   1.087       .  S
C1027      C1028   1.349       .  D
C1028      H1036   1.085       .  S
C1037      C1045   1.483       .  S
C1037      C1038   1.403   1_554  A
C1037      C1042   1.405   1_554  A
C1038      C1039   1.400       .  A
C1038      H1047   1.083   1_556  S
C1039      C1040   1.408       .  A
C1039      H1048   1.081       .  S
C1040      C1043   1.484       .  S
C1040      C1041   1.403       .  A
C1041      C1042   1.395       .  A
C1041      H1049   1.084       .  S
C1042      H1050   1.083       .  S
C1043      H1051   1.088       .  S
C1043      C1044   1.347       .  D
C1044      H1052   1.084       .  S
C1045      H1053   1.087       .  S
C1045      C1046   1.343       .  D
C1046      H1054   1.086       .  S
C1055      C1063   1.483       .  S
C1055      C1056   1.403       .  A
C1055      C1060   1.408       .  A
C1056      C1057   1.395       .  A
C1056      H1065   1.084       .  S
C1057      C1058   1.406       .  A
C1057      H1066   1.082       .  S
C1058      C1061   1.482       .  S
C1058      C1059   1.403       .  A
C1059      C1060   1.400       .  A
C1059      H1067   1.083       .  S
C1060      H1068   1.081       .  S
C1061      H1069   1.087       .  S
C1061      C1062   1.344       .  D
C1062      H1070   1.086       .  S
C1063      H1071   1.087       .  S
C1063      C1064   1.346       .  D
C1064      H1072   1.085       .  S
C1073      C1081   1.492       .  S
C1073      C1074   1.405       .  A
C1073      C1078   1.407       .  A
C1074      C1075   1.406       .  A
C1074      H1083   1.083       .  S
C1075      C1076   1.410       .  A
C1075      H1084   1.082       .  S
C1076      C1079   1.492       .  S
C1076      C1077   1.403       .  A
C1077      C1078   1.399       .  A
C1077      H1085   1.083       .  S
C1078      H1086   1.083       .  S
C1079      H1087   1.087       .  S
C1079      C1080   1.348       .  D
C1080      H1088   1.086       .  S
C1081      H1089   1.086       .  S
C1081      C1082   1.346       .  D
C1082      H1090   1.087       .  S
C1091      C1099   1.489       .  S
C1091      C1092   1.402       .  A
C1091      C1096   1.408       .  A
C1092      C1093   1.402       .  A
C1092      H1101   1.083       .  S
C1093      C1094   1.411       .  A
C1093      H1102   1.081       .  S
C1094      C1097   1.490       .  S
C1094      C1095   1.402       .  A
C1095      C1096   1.397       .  A
C1095      H1103   1.083       .  S
C1096      H1104   1.082       .  S
C1097      H1105   1.087       .  S
C1097      C1098   1.345       .  D
C1098      H1106   1.084       .  S
C1099      H1107   1.086       .  S
C1099      C1100   1.344       .  D
C1100      H1108   1.086       .  S
C1109      C1117   1.498       .  S
C1109      C1110   1.408       .  A
C1109      C1114   1.408       .  A
C1110      C1111   1.407       .  A
C1110      H1119   1.083       .  S
C1111      C1112   1.409       .  A
C1111      H1120   1.081       .  S
C1112      C1115   1.494       .  S
C1112      C1113   1.404       .  A
C1113      C1114   1.396       .  A
C1113      H1121   1.084       .  S
C1114      H1122   1.080       .  S
C1115      H1123   1.087   1_565  S
C1115      C1116   1.351       .  D
C1116      H1124   1.084       .  S
C1117      H1125   1.087       .  S
C1117      C1118   1.351       .  D
C1118      H1126   1.084       .  S
C1127      C1135   1.493       .  S
C1127      C1128   1.404       .  A
C1127      C1132   1.410       .  A
C1128      C1129   1.398       .  A
C1128      H1137   1.083       .  S
C1129      C1130   1.408       .  A
C1129      H1138   1.082       .  S
C1130      C1133   1.491       .  S
C1130      C1131   1.404       .  A
C1131      C1132   1.402       .  A
C1131      H1139   1.083       .  S
C1132      H1140   1.080       .  S
C1133      H1141   1.087       .  S
C1133      C1134   1.346       .  D
C1134      H1142   1.085       .  S
C1135      H1143   1.087       .  S
C1135      C1136   1.348       .  D
C1136      H1144   1.083       .  S
C1145      C1153   1.487       .  S
C1145      C1146   1.405   1_554  A
C1145      C1150   1.407       .  A
C1146      C1147   1.400       .  A
C1146      H1155   1.084       .  S
C1147      C1148   1.405       .  A
C1147      H1156   1.083       .  S
C1148      C1151   1.485       .  S
C1148      C1149   1.405   1_556  A
C1149      C1150   1.402       .  A
C1149      H1157   1.083       .  S
C1150      H1158   1.082       .  S
C1151      H1159   1.088       .  S
C1151      C1152   1.347       .  D
C1152      H1160   1.086       .  S
C1153      H1161   1.088       .  S
C1153      C1154   1.347       .  D
C1154      H1162   1.086       .  S
C1163      C1171   1.485       .  S
C1163      C1164   1.402       .  A
C1163      C1168   1.408       .  A
C1164      C1165   1.398       .  A
C1164      H1173   1.083       .  S
C1165      C1166   1.406       .  A
C1165      H1174   1.083       .  S
C1166      C1169   1.485       .  S
C1166      C1167   1.404       .  A
C1167      C1168   1.404       .  A
C1167      H1175   1.083       .  S
C1168      H1176   1.083       .  S
C1169      H1177   1.086       .  S
C1169      C1170   1.343       .  D
C1170      H1178   1.087       .  S
C1171      H1179   1.087       .  S
C1171      C1172   1.346       .  D
C1172      H1180   1.086       .  S
C1181      C1189   1.495       .  S
C1181      C1182   1.405       .  A
C1181      C1186   1.408       .  A
C1182      C1183   1.405       .  A
C1182      H1191   1.083       .  S
C1183      C1184   1.410       .  A
C1183      H1192   1.081       .  S
C1184      C1187   1.495       .  S
C1184      C1185   1.404       .  A
C1185      C1186   1.400       .  A
C1185      H1193   1.083       .  S
C1186      H1194   1.082       .  S
C1187      H1195   1.087       .  S
C1187      C1188   1.349       .  D
C1188      H1196   1.085       .  S
C1189      H1197   1.086       .  S
C1189      C1190   1.347       .  D
C1190      H1198   1.086       .  S
C1199      C1207   1.490   1_554  S
C1199      C1200   1.403       .  A
C1199      C1204   1.407       .  A
C1200      C1201   1.401       .  A
C1200      H1209   1.083       .  S
C1201      C1202   1.411       .  A
C1201      H1210   1.080       .  S
C1202      C1205   1.494       .  S
C1202      C1203   1.405       .  A
C1203      C1204   1.399       .  A
C1203      H1211   1.083       .  S
C1204      H1212   1.082       .  S
C1205      H1213   1.087       .  S
C1205      C1206   1.348       .  D
C1206      H1214   1.083       .  S
C1207      H1215   1.087       .  S
C1207      C1208   1.344       .  D
C1208      H1216   1.086       .  S
