geometry optimzed in LAMMPS
_audit_creation_date              2020-12-01 
_audit_creation_method            'lammps2cif' 
_symmetry_space_group_name_H-M    'P1' 
_symmetry_Int_Tables_number       1 
_symmetry_cell_setting            triclinic 
loop_ 
_symmetry_equiv_pos_as_xyz 
  x,y,z 
_cell_length_a                    43.29800633 
_cell_length_b                    43.309382636006134 
_cell_length_c                    64.10082480097067 
_cell_angle_alpha                 90.02443188834953 
_cell_angle_beta                  89.97584136147232 
_cell_angle_gamma                 120.04469025314596 
loop_ 
_atom_site_label 
_atom_site_type_symbol 
_atom_site_fract_x 
_atom_site_fract_y 
_atom_site_fract_z 
_atom_site_charge 
O1          O  0.44535442  0.07885428  0.63146722    -0.78900
O2          O  0.46509236  0.10623724  0.53352932    -0.63600
O3          O  0.46318460  0.11282312  0.59278164    -1.10200
C4          C  0.34462933  0.09076305  0.57842682     1.08000
O5          O  0.44538148  0.14402459  0.52940488    -0.76800
O6          O  0.41576095  0.16315531  0.56059428    -0.64400
Ni7        Ni  0.47474423  0.08228184  0.60850888     1.34900
C8          C  0.42641003  0.17337272  0.57905397     0.86700
O9          O  0.01347251  0.11515221  0.56366947    -0.77300
O10         O  0.01532024  0.09339363  0.59521035    -0.87600
C11         C  0.46538939  0.13170282  0.52373269     0.86300
O12         O  0.43657023  0.04051171  0.59655347    -0.65800
O13         O  0.35504082  0.09889406  0.55947519    -0.85100
C14         C  0.43326690  0.03287649  0.57730457     0.87100
C15         C  0.02839469  0.10554218  0.57728897     1.08700
H16         H  0.40085816  0.07219039  0.56159303     0.40500
O17         O  0.41619793  0.09734749  0.56439606    -1.07700
O18         O  0.42978023  0.15381230  0.59283347    -0.64400
Ni19       Ni  0.41430252  0.10288069  0.59383948     1.26300
O20         O  0.44714054  0.05657537  0.56301433    -0.64600
O21         O  0.36487873  0.09187529  0.59338363    -0.76900
C22         C  0.42621931  0.09192290  0.63688155     0.86500
O23         O  0.41414533  0.10598883  0.62404901    -0.64100
Ni24       Ni  0.40072594  0.12039090  0.54531508     1.27400
Ni25       Ni  0.46446162  0.10797276  0.56313130     1.26100
H26         H  0.47934697  0.13731263  0.59666355     0.41100
O27         O  0.06587158  0.14132131  0.36850971    -0.78900
O28         O  0.04360091  0.14452509  0.46625723    -0.63600
O29         O  0.04556380  0.15530135  0.40716665    -1.10200
C30         C  0.16395676  0.25107175  0.42217083     1.08000
O31         O  0.06316520  0.20183842  0.47120015    -0.76800
O32         O  0.09419545  0.25260953  0.44085104    -0.64400
Ni33       Ni  0.03479192  0.11418496  0.39061117     1.34900
C34         C  0.08323167  0.25300256  0.42259096     0.86700
O35         O  0.99583034  0.10968824  0.43703557    -0.77300
O36         O  0.00032983  0.08046193  0.40973340    -0.87600
C37         C  0.04310928  0.16923095  0.47647236     0.86300
O38         O  0.07186691  0.10878568  0.40269436    -0.65800
O39         O  0.15392820  0.24761868  0.44128668    -0.85100
C40         C  0.07503409  0.10403182  0.42189516     0.87100
C41         C  0.48477504  0.08287676  0.42464489     1.08700
H42         H  0.10779673  0.17594177  0.43793129     0.40500
O43         O  0.09243075  0.18581492  0.43564306    -1.07700
O44         O  0.07858855  0.23001635  0.40851238    -0.64400
Ni45       Ni  0.09413161  0.19468943  0.40642176     1.26300
O46         O  0.06163003  0.11406995  0.43630316    -0.64600
O47         O  0.14334754  0.23317166  0.40704893    -0.76900
C48         C  0.08364972  0.17380866  0.36339781     0.86500
O49         O  0.09402135  0.19947760  0.37642269    -0.64100
Ni50       Ni  0.10811474  0.22332832  0.45540234     1.27400
Ni51       Ni  0.04425474  0.14795984  0.43671124     1.26100
H52         H  0.02916310  0.16350855  0.40356251     0.41100
O53         O  0.08208383  0.45177779  0.37078426    -0.78900
O54         O  0.10110640  0.46677949  0.46922995    -0.63600
O55         O  0.11232064  0.46737397  0.41030781    -1.10200
C56         C  0.09031864  0.34889094  0.42398852     1.08000
O57         O  0.13965565  0.44831003  0.47423432    -0.76800
O58         O  0.16157730  0.42015491  0.44358258    -0.64400
Ni59       Ni  0.08233969  0.47902454  0.39404645     1.34900
C60         C  0.17241532  0.43032986  0.42515243     0.86700
O61         O  0.10988026  0.01377336  0.43636961    -0.77300
O62         O  0.08935009  0.01532760  0.40436754    -0.87600
C63         C  0.12667649  0.46800958  0.47938593     0.86300
O64         O  0.04009295  0.43934486  0.40463746    -0.65800
O65         O  0.09790718  0.35885644  0.44307262    -0.85100
C66         C  0.03093399  0.43536082  0.42367536     0.87100
C67         C  0.10056780  0.02846490  0.42240819     1.08700
H68         H  0.07006870  0.40372676  0.44058197     0.40500
O69         O  0.09530123  0.41943315  0.43827790    -1.07700
O70         O  0.15345697  0.43371415  0.41095498    -0.64400
Ni71       Ni  0.10264552  0.41861049  0.40898798     1.26300
O72         O  0.05356134  0.44924690  0.43852733    -0.64600
O73         O  0.09157578  0.36934582  0.40915508    -0.76900
C74         C  0.09482600  0.43221056  0.36574713     0.86500
O75         O  0.10756005  0.41928341  0.37889725    -0.64100
Ni76       Ni  0.11771758  0.40403030  0.45783833     1.27400
Ni77       Ni  0.10514043  0.46733582  0.43976628     1.26100
H78         H  0.13700849  0.48379318  0.40701911     0.41100
O79         O  0.13633685  0.06691148  0.63126511    -0.78900
O80         O  0.14158132  0.04567536  0.53373425    -0.63600
O81         O  0.15185075  0.04792514  0.59279124    -1.10200
C82         C  0.24875134  0.16573349  0.57837800     1.08000
O83         O  0.19891935  0.06568698  0.52841729    -0.76800
O84         O  0.24832798  0.09352296  0.55962558    -0.64400
Ni85       Ni  0.10998216  0.03707117  0.60868448     1.34900
C86         C  0.24888281  0.08404394  0.57826113     0.86700
O87         O  0.10743486  0.99787902  0.56304923    -0.77300
O88         O  0.07664217  0.00354600  0.58899601    -0.87600
C89         C  0.16625679  0.04567462  0.52326280     0.86300
O90         O  0.10660168  0.07531597  0.59671355    -0.65800
O91         O  0.24667234  0.15524432  0.55945020    -0.85100
C92         C  0.10216777  0.07847101  0.57748605     0.87100
C93         C  0.07948021  0.48533563  0.57726971     1.08700
H94         H  0.17323461  0.11011532  0.56152506     0.40500
O95         O  0.18294992  0.09473817  0.56421344    -1.07700
O96         O  0.22662844  0.08151361  0.59231957    -0.64400
Ni97       Ni  0.19086710  0.09663418  0.59361492     1.26300
O98         O  0.11125860  0.06389824  0.56328252    -0.64600
O99         O  0.22905922  0.14580787  0.59320846    -0.76900
C100        C  0.16862963  0.08575210  0.63648750     0.86500
O101        O  0.19466494  0.09691524  0.62366489    -0.64100
Ni102      Ni  0.22118734  0.10990157  0.54489020     1.27400
Ni103      Ni  0.14516082  0.04650075  0.56322778     1.26100
H104        H  0.16008447  0.03166006  0.59666440     0.41100
O105        O  0.36932802  0.44924804  0.37440338    -0.78900
O106        O  0.36759117  0.40373024  0.46642684    -0.63600
O107        O  0.35771164  0.40326891  0.40743280    -1.10200
C108        C  0.26045701  0.42171040  0.42479998     1.08000
O109        O  0.30985954  0.36712298  0.47150660    -0.76800
O110        O  0.25959727  0.34953762  0.44100094    -0.64400
Ni111      Ni  0.39763582  0.43653770  0.39106441     1.34900
C112        C  0.25980845  0.33952554  0.42245142     0.86700
O113        O  0.40400210  0.39671350  0.43539997    -0.77300
O114        O  0.43050954  0.42764629  0.40634505    -0.87600
C115        C  0.34244475  0.37874821  0.47652420     0.86300
O116        O  0.40894110  0.47737388  0.40725839    -0.65800
O117        O  0.26419705  0.41411770  0.44365044    -0.85100
C118        C  0.41039937  0.48167291  0.42676893     0.87100
C119        C  0.43028735  0.41122439  0.42284361     1.08700
H120        H  0.33582531  0.44007086  0.44017687     0.40500
O121        O  0.32610928  0.41502760  0.43716145    -1.07700
O122        O  0.28306033  0.35900077  0.40875847    -0.64400
Ni123      Ni  0.31724839  0.41027854  0.40775913     1.26300
O124        O  0.39750520  0.45600002  0.43967715    -0.64600
O125        O  0.27795513  0.41960419  0.40926590    -0.76900
C126        C  0.34000786  0.42733717  0.36620472     0.86500
O127        O  0.31324327  0.40687991  0.37757583    -0.64100
Ni128      Ni  0.28846128  0.39159027  0.45668134     1.27400
Ni129      Ni  0.36458828  0.40522130  0.43693124     1.26100
H130        H  0.35039616  0.37942537  0.40260510     0.41100
O131        O  0.43089384  0.37431423  0.63177697    -0.78900
O132        O  0.40483176  0.36735529  0.53388303    -0.63600
O133        O  0.39745668  0.35789658  0.59302283    -1.10200
C134        C  0.42112111  0.26275490  0.57882868     1.08000
O135        O  0.36809983  0.30978783  0.52907978    -0.76800
O136        O  0.34837030  0.26109801  0.56037406    -0.64400
Ni137      Ni  0.42772563  0.40019011  0.60872110     1.34900
C138        C  0.33822710  0.26078797  0.57894203     0.86700
O139        O  0.39054436  0.40118654  0.56303993    -0.77300
O140        O  0.42741581  0.43293690  0.58858878    -0.87600
C141        C  0.38001792  0.34221646  0.52370938     0.86300
O142        O  0.46974127  0.40393782  0.59693311    -0.65800
O143        O  0.41256877  0.26456061  0.55989993    -0.85100
C144        C  0.47747954  0.40878637  0.57769921     0.87100
C145        C  0.40802692  0.43001354  0.57307147     1.08700
H146        H  0.43926675  0.33755681  0.56180631     0.40500
O147        O  0.41405769  0.32733502  0.56457809    -1.07700
O148        O  0.35773319  0.28333235  0.59291782    -0.64400
Ni149      Ni  0.40837915  0.31972145  0.59402357     1.26300
O150        O  0.45375023  0.39911610  0.56344945    -0.64600
O151        O  0.42040590  0.28222510  0.59366321    -0.76900
C152        C  0.41852729  0.34212789  0.63704042     0.86500
O153        O  0.40501320  0.31610692  0.62413836    -0.64100
Ni154      Ni  0.39145096  0.28883326  0.54540258     1.27400
Ni155      Ni  0.40251567  0.36427715  0.56342591     1.26100
H156        H  0.37288936  0.34915286  0.59690258     0.41100
O157        O  0.04144098  0.28175231  0.03760827    -0.78900
O158        O  0.03689819  0.24078823  0.13217345    -0.63600
O159        O  0.02854020  0.23913131  0.07297050    -1.10200
C160        C  0.43119420  0.25665202  0.09136503     1.08000
O161        O  0.47940214  0.20355565  0.13978251    -0.76800
O162        O  0.42972332  0.18558731  0.10922548    -0.64400
Ni163      Ni  0.06905211  0.27185792  0.05687738     1.34900
C164        C  0.43018264  0.17452316  0.09101199     0.86700
O165        O  0.07353244  0.23221351  0.10179280    -0.77300
O166        O  0.10207242  0.26552649  0.07394066    -0.87600
C167        C  0.01127643  0.21554593  0.14189194     0.86300
O168        O  0.07702177  0.31284897  0.07196544    -0.65800
O169        O  0.43490694  0.25032138  0.11048621    -0.85100
C170        C  0.07981962  0.31801922  0.09143445     0.87100
C171        C  0.10079767  0.24779157  0.09005178     1.08700
H172        H  0.00690987  0.27749075  0.10482663     0.40500
O173        O  0.49659346  0.25045758  0.10482702    -1.07700
O174        O  0.45355903  0.19313834  0.07717579    -0.64400
Ni175      Ni  0.48821802  0.24420272  0.07548056     1.26300
O176        O  0.06850901  0.29278648  0.10468870    -0.64600
O177        O  0.44912203  0.25404499  0.07621009    -0.76900
C178        C  0.01043396  0.26126476  0.03066924     0.86500
O179        O  0.48423061  0.24010249  0.04536666    -0.64100
Ni180      Ni  0.45871808  0.22810537  0.12434490     1.27400
Ni181      Ni  0.03483434  0.24182308  0.10257228     1.26100
H182        H  0.02117123  0.21514741  0.06839699     0.41100
O183        O  0.11515882  0.20759573  0.29174544    -0.78900
O184        O  0.07265262  0.20278469  0.19893421    -0.63600
O185        O  0.07016043  0.19518949  0.25810263    -1.10200
C186        C  0.08675176  0.09586738  0.24326039     1.08000
O187        O  0.03439653  0.14517545  0.19494488    -0.76800
O188        O  0.01571180  0.09570563  0.22608567    -0.64400
Ni189      Ni  0.10237579  0.23543201  0.27461113     1.34900
C190        C  0.00558455  0.09681746  0.24447912     0.86700
O191        O  0.06594604  0.24134337  0.22876689    -0.77300
O192        O  0.09317273  0.26761862  0.25881532    -0.87600
C193        C  0.04694526  0.17760208  0.18926318     0.86300
O194        O  0.14418700  0.24821859  0.25897030    -0.65800
O195        O  0.07971928  0.09916770  0.22421023    -0.85100
C196        C  0.14926439  0.24825886  0.23956701     0.87100
C197        C  0.07883987  0.26749533  0.24145969     1.08700
H198        H  0.10698712  0.17100855  0.22663133     0.40500
O199        O  0.08193453  0.16189940  0.22943247    -1.07700
O200        O  0.02507444  0.12065004  0.25788450    -0.64400
Ni201      Ni  0.07649163  0.15425571  0.25888238     1.26300
O202        O  0.12422248  0.23316919  0.22635051    -0.64600
O203        O  0.08491198  0.11426587  0.25839255    -0.76900
C204        C  0.09302398  0.17854153  0.30017626     0.86500
O205        O  0.07259179  0.15149457  0.28901893    -0.64100
Ni206      Ni  0.05805620  0.12358762  0.21040136     1.27400
Ni207      Ni  0.07326319  0.20108102  0.22852206     1.26100
H208        H  0.04612719  0.18814193  0.26239116     0.41100
O209        O  0.30474949  0.40102069  0.29749714    -0.78900
O210        O  0.31158441  0.38249666  0.19976883    -0.63600
O211        O  0.32072844  0.38411446  0.25881967    -1.10200
C212        C  0.41874977  0.00013287  0.24510057     1.08000
O213        O  0.36893849  0.40199050  0.19541270    -0.76800
O214        O  0.41868087  0.43341140  0.22609633    -0.64400
Ni215      Ni  0.27851825  0.37274688  0.27437060     1.34900
C216        C  0.41869371  0.42251406  0.24441662     0.86700
O217        O  0.27705609  0.33442499  0.22883253    -0.77300
O218        O  0.24538304  0.34053805  0.25401385    -0.87600
C219        C  0.33646699  0.38165578  0.19000758     0.86300
O220        O  0.27641645  0.41200740  0.26287544    -0.65800
O221        O  0.41341858  0.49280175  0.22515395    -0.85100
C222        C  0.27147813  0.41501685  0.24369332     0.87100
C223        C  0.24816725  0.32360566  0.23869193     1.08700
H224        H  0.34184287  0.44653541  0.22797302     0.40500
O225        O  0.35178831  0.43130175  0.23051647    -1.07700
O226        O  0.39540466  0.41782691  0.25831765    -0.64400
Ni227      Ni  0.35969409  0.43295518  0.25985084     1.26300
O228        O  0.28025543  0.40029635  0.22937278    -0.64600
O229        O  0.39815740  0.48229514  0.25933545    -0.76900
C230        C  0.33695098  0.42039256  0.30285347     0.86500
O231        O  0.36318091  0.43284600  0.29003036    -0.64100
Ni232      Ni  0.38970584  0.44703453  0.21106524     1.27400
Ni233      Ni  0.31442280  0.38307622  0.22927723     1.26100
H234        H  0.32898594  0.36783429  0.26267264     0.41100
O235        O  0.24938619  0.28214850  0.03658764    -0.78900
O236        O  0.27323736  0.30310272  0.13454208    -0.63600
O237        O  0.28181543  0.30031190  0.07555589    -1.10200
C238        C  0.25924802  0.18208514  0.09128076     1.08000
O239        O  0.31137103  0.28412560  0.13961933    -0.76800
O240        O  0.33124556  0.25325111  0.10932131    -0.64400
Ni241      Ni  0.25132429  0.31129481  0.05932196     1.34900
C242        C  0.34189451  0.26314056  0.09082066     0.86700
O243        O  0.28676297  0.35059311  0.10509321    -0.77300
O244        O  0.25035556  0.34434380  0.07903291    -0.87600
C245        C  0.29877880  0.30422109  0.14466633     0.86300
O246        O  0.20934083  0.27276929  0.07101918    -0.65800
O247        O  0.26686804  0.19282726  0.11023796    -0.85100
C248        C  0.20116399  0.27045737  0.09017155     0.87100
C249        C  0.26890140  0.36114306  0.09475453     1.08700
H250        H  0.24027327  0.23849470  0.10691401     0.40500
O251        O  0.26554177  0.25383675  0.10432439    -1.07700
O252        O  0.32283846  0.26656953  0.07669373    -0.64400
Ni253      Ni  0.27194972  0.25142724  0.07504570     1.26300
O254        O  0.22459416  0.28469246  0.10457194    -0.64600
O255        O  0.26079530  0.20206119  0.07606092    -0.76900
C256        C  0.26235834  0.26269667  0.03167880     0.86500
O257        O  0.27589538  0.25067475  0.04491054    -0.64100
Ni258      Ni  0.28808628  0.23890150  0.12407235     1.27400
Ni259      Ni  0.27600774  0.30201031  0.10505766     1.26100
H260        H  0.30638196  0.31646532  0.07182785     0.41100
O261        O  0.24920880  0.47610295  0.04174455    -0.78900
O262        O  0.21294166  0.48127694  0.13516448    -0.63600
O263        O  0.21817937  0.48954631  0.07602041    -1.10200
C264        C  0.33452859  0.08597895  0.09141212     1.08000
O265        O  0.23234442  0.03564418  0.13895134    -0.76800
O266        O  0.26495346  0.08677888  0.10904869    -0.64400
Ni267      Ni  0.20900822  0.44906577  0.05940816     1.34900
C268        C  0.25288564  0.08632688  0.09097193     0.86700
O269        O  0.16719673  0.44426323  0.10535475    -0.77300
O270        O  0.16775150  0.41740192  0.07551171    -0.87600
C271        C  0.21297190  0.50660529  0.14495533     0.86300
O272        O  0.23808131  0.43592749  0.07470601    -0.65800
O273        O  0.32437331  0.08111150  0.11053661    -0.85100
C274        C  0.24298391  0.43536815  0.09409249     0.87100
C275        C  0.15356391  0.41803192  0.09277183     1.08700
H276        H  0.27852897  0.01038026  0.10645567     0.40500
O277        O  0.26289522  0.01992274  0.10407824    -1.07700
O278        O  0.24760694  0.06276042  0.07711935    -0.64400
Ni279      Ni  0.26575418  0.02950536  0.07484933     1.26300
O280        O  0.23299673  0.45023011  0.10747457    -0.64600
O281        O  0.31399162  0.06946288  0.07601246    -0.76900
C282        C  0.25946012  0.00767727  0.03325850     0.86500
O283        O  0.26513825  0.03408830  0.04476403    -0.64100
Ni284      Ni  0.27793591  0.05704223  0.12396264     1.27400
Ni285      Ni  0.21532006  0.48340875  0.10559638     1.26100
H286        H  0.20163562  0.99511292  0.07030010     0.41100
O287        O  0.09911175  0.40286904  0.29384573    -0.78900
O288        O  0.13686309  0.44436134  0.20118918    -0.63600
O289        O  0.13182988  0.44779812  0.26029689    -1.10200
C290        C  0.01582002  0.43028185  0.24485694     1.08000
O291        O  0.11825280  0.48315129  0.19719659    -0.76800
O292        O  0.08649457  0.50152161  0.22794044    -0.62600
Ni293      Ni  0.14044396  0.41644406  0.27717724     1.34900
C294        C  0.09392799  0.00707767  0.24358976     0.86700
O295        O  0.18224009  0.45167592  0.23110095    -0.77300
O296        O  0.18263118  0.42680970  0.26181197    -0.87600
C297        C  0.13791753  0.47033999  0.19156427     0.86300
O298        O  0.11253165  0.37408655  0.26169066    -0.65800
O299        O  0.02637144  0.43721889  0.22583766    -0.85100
C300        C  0.10616729  0.36827444  0.24242638     0.87100
C301        C  0.19645966  0.44053834  0.24426264     1.08700
H302        H  0.07082767  0.41049149  0.22881998     0.40500
O303        O  0.08682241  0.43554813  0.23155984    -1.07700
O304        O  0.10220647  0.49259503  0.25979104    -0.64400
Ni305      Ni  0.08445645  0.44123112  0.26095181     1.26300
O306        O  0.11531121  0.39291213  0.22897258    -0.64600
O307        O  0.03595825  0.43261337  0.26017685    -0.76900
C308        C  0.09193051  0.42478017  0.30231615     0.86500
O309        O  0.08533006  0.44519876  0.29113551    -0.64100
Ni310      Ni  0.07266394  0.45925927  0.21231015     1.27400
Ni311      Ni  0.13457761  0.44410701  0.23076746     1.26100
H312        H  0.14872354  0.47198707  0.26438261     0.41100
O313        O  0.41503640  0.30878928  0.70890910    -0.78900
O314        O  0.38218161  0.31588403  0.80235135    -0.63600
O315        O  0.38407916  0.32224595  0.74313193    -1.10200
C316        C  0.50051176  0.42145738  0.75618476     1.08000
O317        O  0.40077671  0.37336096  0.80584801    -0.76800
O318        O  0.43030409  0.42225588  0.77450088    -0.64400
Ni319      Ni  0.37473380  0.28171354  0.72651831     1.34900
C320        C  0.41830109  0.42083153  0.75629512     0.86700
O321        O  0.33540862  0.27652046  0.77334781    -0.77300
O322        O  0.33336283  0.25045510  0.74265090    -0.87600
C323        C  0.38100341  0.34100224  0.81167404     0.86300
O324        O  0.40366017  0.26806505  0.74163107    -0.65800
O325        O  0.49094954  0.41885875  0.77536359    -0.85100
C326        C  0.41152351  0.26977031  0.76073900     0.87100
C327        C  0.32038738  0.25090569  0.76039466     1.08700
H328        H  0.44675468  0.34746991  0.77355037     0.40500
O329        O  0.43050318  0.35621958  0.77102742    -1.07700
O330        O  0.41364846  0.39689914  0.74285509    -0.64400
Ni331      Ni  0.43128246  0.36308977  0.74157679     1.26300
O332        O  0.40284149  0.28547585  0.77430483    -0.64600
O333        O  0.47968891  0.40282813  0.74133130    -0.76900
C334        C  0.42240289  0.33792445  0.70039425     0.86500
O335        O  0.42902671  0.36507624  0.71145350    -0.64100
Ni336      Ni  0.44551296  0.39477541  0.78988005     1.27400
Ni337      Ni  0.38294107  0.31683578  0.77273736     1.26100
H338        H  0.36690364  0.32934489  0.73929940     0.41100
O339        O  0.26806101  0.23388006  0.95967301    -0.78900
O340        O  0.30253753  0.27660120  0.86640825    -0.63600
O341        O  0.29914480  0.27916223  0.92561473    -1.10200
C342        C  0.18289561  0.26181369  0.91187883     1.08000
O343        O  0.28404192  0.31543005  0.86296008    -0.76800
O344        O  0.25403286  0.33376649  0.89440281    -0.64400
Ni345      Ni  0.30785239  0.24689986  0.94159087     1.34900
C346        C  0.26568725  0.34390003  0.91270278     0.86700
O347        O  0.34873491  0.28433607  0.89551272    -0.77300
O348        O  0.34876892  0.25655904  0.92506885    -0.87600
C349        C  0.30395347  0.30299481  0.85718584     0.86300
O350        O  0.27809582  0.20502645  0.92603099    -0.65800
O351        O  0.19312805  0.26971855  0.89284750    -0.85100
C352        C  0.27230502  0.19999289  0.90666329     0.87100
C353        C  0.36261459  0.27167628  0.90779748     1.08700
H354        H  0.23733240  0.24231386  0.89454376     0.40500
O355        O  0.25335597  0.26732653  0.89739400    -1.07700
O356        O  0.26956480  0.32411279  0.92613650    -0.64400
Ni357      Ni  0.25187012  0.27254892  0.92693327     1.26300
O358        O  0.28224626  0.22518622  0.89355353    -0.64600
O359        O  0.20332498  0.26362266  0.92688124    -0.76900
C360        C  0.26017578  0.25530335  0.96819125     0.86500
O361        O  0.25348415  0.27584458  0.95715965    -0.64100
Ni362      Ni  0.23891016  0.29151659  0.87865139     1.27400
Ni363      Ni  0.30107162  0.27617321  0.89594618     1.26100
H364        H  0.31618914  0.30319163  0.92988506     0.41100
O365        O  0.20827393  0.11200924  0.70578815    -0.78900
O366        O  0.20186974  0.07594298  0.80164917    -0.63600
O367        O  0.19407919  0.07173605  0.74243649    -1.10200
C368        C  0.09522331  0.08912111  0.75717606     1.08000
O369        O  0.14456598  0.03703720  0.80553577    -0.76800
O370        O  0.09510111  0.01823596  0.77468769    -0.64400
Ni371      Ni  0.23513868  0.10442879  0.72657170     1.34900
C372        C  0.09587249  0.00813415  0.75626536     0.86700
O373        O  0.23898248  0.06679235  0.77222585    -0.77300
O374        O  0.26824856  0.10085849  0.74489544    -0.87600
C375        C  0.17703014  0.04962287  0.81107755     0.86300
O376        O  0.24085396  0.14557382  0.74044645    -0.65800
O377        O  0.09825070  0.08194732  0.77624619    -0.85100
C378        C  0.24408259  0.15159980  0.75983380     0.87100
C379        C  0.26683589  0.08355804  0.76117551     1.08700
H380        H  0.17039374  0.10968043  0.77382575     0.40500
O381        O  0.16120816  0.08464116  0.77105880    -1.07700
O382        O  0.11953072  0.02751487  0.74275229    -0.64400
Ni383      Ni  0.15360821  0.07881844  0.74165891     1.26300
O384        O  0.23290124  0.12688820  0.77345895    -0.64600
O385        O  0.11396256  0.08765342  0.74213559    -0.76900
C386        C  0.17665312  0.09308942  0.69940574     0.86500
O387        O  0.15038501  0.07483032  0.71162645    -0.64100
Ni388      Ni  0.12291890  0.06066420  0.79015896     1.27400
Ni389      Ni  0.19990228  0.07556138  0.77209274     1.26100
H390        H  0.18697670  0.04765120  0.73819512     0.41100
O391        O  0.26733871  0.04309356  0.96423205    -0.78900
O392        O  0.24023007  0.03538986  0.86659685    -0.63600
O393        O  0.23234005  0.02717072  0.92576968    -1.10200
C394        C  0.26111615  0.43362490  0.91202145     1.08000
O395        O  0.20828451  0.48019257  0.86215410    -0.76800
O396        O  0.18970783  0.43052263  0.89276994    -0.64400
Ni397      Ni  0.26302951  0.06911747  0.94163194     1.34900
C398        C  0.17779806  0.43037135  0.91083473     0.86700
O399        O  0.22753558  0.07137944  0.89515197    -0.77300
O400        O  0.26188053  0.10191437  0.92195096    -0.87600
C401        C  0.21440992  0.01057707  0.85684729     0.86300
O402        O  0.30536882  0.07410096  0.92952394    -0.65800
O403        O  0.25517305  0.43708895  0.89278841    -0.85100
C404        C  0.31295702  0.07826432  0.91026557     0.87100
C405        C  0.24435368  0.09981308  0.90567762     1.08700
H406        H  0.27303062  0.00491729  0.89517286     0.40500
O407        O  0.25333485  0.49807114  0.89800452    -1.07700
O408        O  0.19557979  0.45353311  0.92494832    -0.64400
Ni409      Ni  0.24621432  0.48933117  0.92729467     1.26300
O410        O  0.28916134  0.06722353  0.89601588    -0.64600
O411        O  0.25766629  0.45136180  0.92695797    -0.76900
C412        C  0.25300005  0.01088163  0.96988230     0.86500
O413        O  0.24109296  0.48485646  0.95734455    -0.64100
Ni414      Ni  0.23281139  0.46026063  0.87831751     1.27400
Ni415      Ni  0.23779840  0.03321378  0.89612120     1.26100
H416        H  0.20783487  0.01914656  0.92947122     0.41100
O417        O  0.47468133  0.24914904  0.96157100    -0.78900
O418        O  0.47900077  0.21190965  0.86776110    -0.63600
O419        O  0.48683006  0.21759049  0.92689281    -1.10200
C420        C  0.08865004  0.33480344  0.90948002     1.08000
O421        O  0.03790777  0.23192347  0.86223486    -0.76800
O422        O  0.08794019  0.26381819  0.89282382    -0.64400
Ni423      Ni  0.44657304  0.21076548  0.94297644     1.34900
C424        C  0.08674808  0.25261125  0.91120815     0.86700
O425        O  0.44078217  0.16672559  0.89775299    -0.77300
O426        O  0.41322184  0.17109944  0.92624382    -0.87600
C427        C  0.50398043  0.21075104  0.85829834     0.86300
O428        O  0.43845827  0.24340123  0.92772956    -0.65800
O429        O  0.08480123  0.32432344  0.89042121    -0.85100
C430        C  0.43668308  0.24662531  0.90828134     0.87100
C431        C  0.41381934  0.15503626  0.90976759     1.08700
H432        H  0.01309005  0.28040706  0.89337101     0.40500
O433        O  0.02199206  0.26437918  0.89622835    -1.07700
O434        O  0.06288247  0.24822336  0.92457962    -0.64400
Ni435      Ni  0.03012697  0.26695568  0.92562660     1.26300
O436        O  0.44868609  0.23341756  0.89503135    -0.64600
O437        O  0.07060177  0.31483606  0.92475006    -0.76900
C438        C  0.00698397  0.26104211  0.96706374     0.86500
O439        O  0.03347480  0.26648869  0.95572955    -0.64100
Ni440      Ni  0.05994740  0.27784050  0.87703874     1.27400
Ni441      Ni  0.48083481  0.21447004  0.89728263     1.26100
H442        H  0.99540640  0.20290434  0.92973850     0.41100
O443        O  0.40226948  0.10482372  0.70806009    -0.78900
O444        O  0.44075241  0.13583949  0.80242226    -0.63600
O445        O  0.44605111  0.13293570  0.74327465    -1.10200
C446        C  0.42347361  0.01466363  0.75732722     1.08000
O447        O  0.47723343  0.11455904  0.80681924    -0.76800
O448        O  0.49602552  0.08452405  0.77563776    -0.64400
Ni449      Ni  0.41642572  0.14432153  0.72653444     1.34900
C450        C  0.00603520  0.09511816  0.75649497     0.86700
O451        O  0.45193649  0.18341676  0.77336125    -0.77300
O452        O  0.42685880  0.18524120  0.74313101    -0.87600
C453        C  0.46566585  0.13529303  0.81229461     0.86300
O454        O  0.37335867  0.11586094  0.74132521    -0.65800
O455        O  0.43100100  0.02463056  0.77638393    -0.85100
C456        C  0.36712606  0.10976058  0.76059758     0.87100
C457        C  0.44060446  0.19820810  0.76077639     1.08700
H458        H  0.40565210  0.07125092  0.77423006     0.40500
O459        O  0.43094468  0.08640478  0.77160922    -1.07700
O460        O  0.48776122  0.10000102  0.74353987    -0.64400
Ni461      Ni  0.43677313  0.08459710  0.74216688     1.26300
O462        O  0.39131768  0.11822883  0.77422442    -0.64600
O463        O  0.42568549  0.03531937  0.74236940    -0.76900
C464        C  0.42154205  0.09344638  0.70039206     0.86500
O465        O  0.44069242  0.08564570  0.71198110    -0.64100
Ni466      Ni  0.45313567  0.07012446  0.79073934     1.27400
Ni467      Ni  0.44190497  0.13491496  0.77290868     1.26100
H468        H  0.47057278  0.14898388  0.73941446     0.41100
C469        C  0.49452721  0.18429429  0.84204673    -0.11300
C470        C  0.48268860  0.16096975  0.82891976    -0.12800
C471        C  0.11618507  0.37114634  0.91393247    -0.11300
C472        C  0.14273072  0.40040808  0.91503061    -0.12800
C473        C  0.35017731  0.09948925  0.90489312    -0.11300
C474        C  0.38116630  0.12280194  0.90474256    -0.12800
C475        C  0.06774664  0.09796930  0.75250419    -0.11300
C476        C  0.04107440  0.10053299  0.75165885    -0.12800
C477        C  0.33057430  0.09384646  0.76691388    -0.11300
C478        C  0.29944347  0.08511723  0.76711121    -0.12800
C479        C  0.18654731  0.03235871  0.82723273    -0.11300
C480        C  0.19797631  0.02025214  0.84028004    -0.12800
C481        C  0.39463382  0.27196256  0.90184307    -0.11300
C482        C  0.41733481  0.26366090  0.90160918    -0.12800
C483        C  0.14611249  0.25142591  0.91644816    -0.11300
C484        C  0.11634535  0.24762348  0.91676224    -0.12800
C485        C  0.25523341  0.16361085  0.89965231    -0.11300
C486        C  0.24591224  0.13228675  0.89923657    -0.12800
C487        C  0.27031041  0.40638546  0.91697976    -0.11300
C488        C  0.27233314  0.37935735  0.91788027    -0.12800
C489        C  0.03596425  0.44527195  0.75406165    -0.11300
C490        C  0.06590008  0.47093500  0.75344859    -0.12800
C491        C  0.28786014  0.21918995  0.76597123    -0.11300
C492        C  0.26448545  0.18834058  0.76599006    -0.12800
C493        C  0.41486104  0.47939429  0.75147970    -0.11300
C494        C  0.41229574  0.45006443  0.75109468    -0.12800
C495        C  0.42990443  0.25128100  0.76687082    -0.11300
C496        C  0.43992729  0.22980514  0.76678529    -0.12800
C497        C  0.33072026  0.32029161  0.84096769    -0.11300
C498        C  0.35446973  0.33183819  0.82800414    -0.12800
C499        C  0.25848625  0.00867662  0.01077869    -0.11300
C500        C  0.25497523  0.00610039  0.99199133    -0.12800
C501        C  0.16388274  0.48674407  0.17488471    -0.11300
C502        C  0.18695690  0.49779975  0.16153152    -0.12800
C503        C  0.26139703  0.25567107  0.00961318    -0.11300
C504        C  0.25925860  0.25532128  0.99073590    -0.12800
C505        C  0.26740689  0.39224066  0.10088656    -0.11300
C506        C  0.25891866  0.41485628  0.10072865    -0.12800
C507        C  0.24999446  0.14540879  0.08700467    -0.11300
C508        C  0.24740707  0.11608994  0.08641175    -0.12800
C509        C  0.44874269  0.41771121  0.24910021    -0.11300
C510        C  0.47811560  0.42059161  0.24806419    -0.12800
C511        C  0.22880264  0.44071634  0.23902249    -0.11300
C512        C  0.25154883  0.43238154  0.23866576    -0.12800
C513        C  0.32698619  0.35488760  0.17380699    -0.11300
C514        C  0.31536050  0.33104341  0.16091541    -0.12800
C515        C  0.09882336  0.04198329  0.24837623    -0.11300
C516        C  0.09588561  0.06847876  0.24773615    -0.12800
C517        C  0.08919062  0.33154951  0.23603949    -0.11300
C518        C  0.07998844  0.30022178  0.23596745    -0.12800
C519        C  0.47368401  0.06547870  0.25010587    -0.11300
C520        C  0.44673681  0.03636124  0.24963882    -0.12800
C521        C  0.18548854  0.26873532  0.23266986    -0.11300
C522        C  0.21631212  0.29196137  0.23244902    -0.12800
C523        C  0.00656271  0.26102874  0.00835300    -0.11300
C524        C  0.00870865  0.26247388  0.98951216    -0.12800
C525        C  0.16382785  0.25460328  0.09511528    -0.11300
C526        C  0.13300754  0.24740613  0.09505710    -0.12800
C527        C  0.37693962  0.26817901  0.08613246    -0.11300
C528        C  0.40367343  0.26561753  0.08683219    -0.12800
C529        C  0.09928315  0.35453065  0.09812471    -0.11300
C530        C  0.12159605  0.38576261  0.09830968    -0.12800
C531        C  0.37112847  0.11308032  0.08710015    -0.11300
C532        C  0.40052342  0.13951544  0.08629860    -0.12800
C533        C  0.01967825  0.19845110  0.15872748    -0.11300
C534        C  0.03060928  0.18677563  0.17234991    -0.12800
C535        C  0.42016285  0.33678191  0.65908443    -0.11300
C536        C  0.42272277  0.33876345  0.67790842    -0.12800
C537        C  0.33887550  0.42669937  0.34374153    -0.11300
C538        C  0.34179420  0.42677251  0.32495195    -0.12800
C539        C  0.35180519  0.36232179  0.49329865    -0.11300
C540        C  0.36352665  0.35123678  0.50680993    -0.12800
C541        C  0.17395910  0.09284689  0.65842094    -0.11300
C542        C  0.17242521  0.09301141  0.67722284    -0.12800
C543        C  0.01628701  0.43017421  0.57155065    -0.11300
C544        C  0.04731805  0.45312961  0.57180686    -0.12800
C545        C  0.30317398  0.23119214  0.58387934    -0.11300
C546        C  0.27631888  0.20204333  0.58312342    -0.12800
C547        C  0.09187151  0.42555559  0.32481857    -0.11300
C548        C  0.09428544  0.42587712  0.34365720    -0.12800
C549        C  0.49425727  0.42083747  0.42724451    -0.11300
C550        C  0.46297432  0.41176630  0.42751635    -0.12800
C551        C  0.20737746  0.43524893  0.42051654    -0.11300
C552        C  0.23357654  0.43179397  0.42098062    -0.12800
C553        C  0.14321584  0.49480941  0.49562212    -0.11300
C554        C  0.15634992  0.02013927  0.50631658    -0.12800
C555        C  0.09092449  0.17975342  0.34143090    -0.11300
C556        C  0.09189853  0.17775195  0.32263612    -0.12800
C557        C  0.09997322  0.06061313  0.42713490    -0.11300
C558        C  0.09168949  0.08342054  0.42701183    -0.12800
C559        C  0.08119698  0.31249527  0.41908936    -0.11300
C560        C  0.07833307  0.28310830  0.41812161    -0.12800
C561        C  0.23001122  0.30474503  0.41718057    -0.11300
C562        C  0.20056324  0.27821699  0.41762901    -0.12800
C563        C  0.43188669  0.01878733  0.43063617    -0.11300
C564        C  0.45344407  0.05016281  0.43012272    -0.12800
C565        C  0.42050517  0.08978797  0.67795815    -0.11300
C566        C  0.41995912  0.09083806  0.65905675    -0.12800
C567        C  0.43034659  0.23554168  0.58354479    -0.11300
C568        C  0.43247228  0.20859878  0.58413150    -0.12800
C569        C  0.41628769  0.49280013  0.56687254    -0.11300
C570        C  0.40819917  0.46182699  0.56676034    -0.12800
C571        C  0.30797760  0.08137876  0.58292594    -0.11300
C572        C  0.27861076  0.07871902  0.58326999    -0.12800
C573        C  0.08279672  0.09628759  0.57216789    -0.11300
C574        C  0.06054292  0.10528181  0.57218963    -0.12800
C575        C  0.49117386  0.14864042  0.50703995    -0.11300
C576        C  0.01719437  0.15946445  0.49325754    -0.12800
O577        O  0.42562454  0.56393429  0.62527392    -0.78900
O578        O  0.46282835  0.60510592  0.53231134    -0.63600
O579        O  0.45825421  0.60866669  0.59145715    -1.10200
C580        C  0.34182257  0.58929343  0.57685679     1.08000
O581        O  0.44252629  0.64248771  0.52806412    -0.76800
O582        O  0.41120245  0.66084400  0.55894951    -0.64400
Ni583      Ni  0.46651612  0.57706667  0.60827350     1.34900
C584        C  0.42346358  0.67188333  0.57707978     0.86700
O585        O  0.01256000  0.61781315  0.56461655    -0.77300
O586        O  0.00976031  0.58730389  0.59353989    -0.87600
C587        C  0.46319820  0.63073308  0.52265797     0.86300
O588        O  0.43791633  0.53484451  0.59282029    -0.65800
O589        O  0.35152306  0.59575873  0.55768219    -0.85100
C590        C  0.43250738  0.52926482  0.57347053     0.87100
C591        C  0.02509382  0.60368592  0.57684657     1.08700
H592        H  0.39700300  0.57033217  0.56037704     0.40500
O593        O  0.41273569  0.59552564  0.56289628    -1.07700
O594        O  0.42842396  0.65303261  0.59062229    -0.64400
Ni595      Ni  0.41097178  0.60179060  0.59229168     1.26300
O596        O  0.44231965  0.55399972  0.56005966    -0.64600
O597        O  0.36261301  0.59265199  0.59193501    -0.76900
C598        C  0.41875989  0.58610231  0.63367641     0.86500
O599        O  0.41237864  0.60656217  0.62241632    -0.64100
Ni600      Ni  0.39739119  0.61822580  0.54364084     1.27400
Ni601      Ni  0.46074688  0.60493397  0.56190956     1.26100
H602        H  0.47513299  0.63284295  0.59556954     0.41100
O603        O  0.07796703  0.64099081  0.37519395    -0.78900
O604        O  0.04152935  0.64609327  0.46874842    -0.63600
O605        O  0.04691349  0.65390701  0.40969652    -1.10200
C606        C  0.16381401  0.75139091  0.42500467     1.08000
O607        O  0.06213581  0.70381373  0.47289470    -0.76800
O608        O  0.09478788  0.75338001  0.44222271    -0.64400
Ni609      Ni  0.03895103  0.61340407  0.39353691     1.34900
C610        C  0.08298460  0.75242648  0.42403044     0.86700
O611        O  0.99577654  0.60904325  0.43890952    -0.77300
O612        O  0.99880281  0.58107060  0.41018442    -0.87600
C613        C  0.04145415  0.67146331  0.47836798     0.86300
O614        O  0.07003858  0.60298527  0.40892118    -0.65800
O615        O  0.15376040  0.74744684  0.44412584    -0.85100
C616        C  0.07304400  0.60119587  0.42842510     0.87100
C617        C  0.48259813  0.58146646  0.42752093     1.08700
H618        H  0.10752551  0.67630514  0.44111445     0.40500
O619        O  0.09218874  0.68609996  0.43848334    -1.07700
O620        O  0.07725764  0.72822451  0.41059594    -0.64400
Ni621      Ni  0.09447243  0.69429225  0.40914242     1.26300
O622        O  0.06105762  0.61456508  0.44153139    -0.64600
O623        O  0.14317815  0.73392669  0.40977856    -0.76900
C624        C  0.08657094  0.67105481  0.36752030     0.86500
O625        O  0.09344772  0.69769298  0.37912476    -0.64100
Ni626      Ni  0.10755828  0.72418371  0.45775311     1.27400
Ni627      Ni  0.04387404  0.64801618  0.43926377     1.26100
H628        H  0.03011220  0.66113468  0.40524350     0.41100
O629        O  0.06622503  0.93072291  0.37388826    -0.78900
O630        O  0.10287358  0.96870396  0.46649110    -0.63600
O631        O  0.11015247  0.96465548  0.40753301    -1.10200
C632        C  0.09295885  0.84914510  0.42340674     1.08000
O633        O  0.14235149  0.95119216  0.47144294    -0.76800
O634        O  0.16329580  0.92037246  0.44160843    -0.64400
Ni635      Ni  0.07939031  0.97270916  0.38973579     1.34900
C636        C  0.17450449  0.93145833  0.42333920     0.86700
O637        O  0.11544090  0.51574485  0.44058332    -0.77300
O638        O  0.07974735  0.51032330  0.41431606    -0.87600
C639        C  0.12887699  0.97052283  0.47653017     0.86300
O640        O  0.03624871  0.94531970  0.40467223    -0.65800
O641        O  0.09929148  0.85958595  0.44248705    -0.85100
C642        C  0.02929997  0.93705601  0.42367699     0.87100
C643        C  0.09798956  0.52669127  0.43019086     1.08700
H644        H  0.07218378  0.90304966  0.43853858     0.40500
O645        O  0.09727342  0.91962322  0.43627863    -1.07700
O646        O  0.15582951  0.93562097  0.40925955    -0.64400
Ni647      Ni  0.10440479  0.91761495  0.40706124     1.26300
O648        O  0.05302791  0.94557057  0.43760283    -0.64600
O649        O  0.09603370  0.86936659  0.40800392    -0.76900
C650        C  0.08859207  0.92412615  0.36552910     0.86500
O651        O  0.10956347  0.91858011  0.37689292    -0.64100
Ni652      Ni  0.12001028  0.90570986  0.45623787     1.27400
Ni653      Ni  0.10436500  0.96682901  0.43692315     1.26100
H654        H  0.13449383  0.98187106  0.40396360     0.41100
O655        O  0.13929284  0.57998869  0.62847825    -0.78900
O656        O  0.14122534  0.54681334  0.53463256    -0.63600
O657        O  0.15156806  0.54989515  0.59355620    -1.10200
C658        C  0.24973663  0.66665060  0.57864791     1.08000
O659        O  0.19840711  0.56578148  0.52959253    -0.76800
O660        O  0.24839915  0.59517688  0.56006513    -0.64400
Ni661      Ni  0.11170513  0.53978104  0.61100552     1.34900
C662        C  0.24780282  0.58359406  0.57826332     0.86700
O663        O  0.10474239  0.50016080  0.56410017    -0.77300
O664        O  0.07971053  0.49843096  0.59507442    -0.87600
C665        C  0.16568644  0.54565234  0.52459592     0.86300
O666        O  0.09725352  0.56862199  0.59660434    -0.65800
O667        O  0.24607408  0.65644971  0.55955378    -0.85100
C668        C  0.09766007  0.57590229  0.57749015     0.87100
C669        C  0.07898877  0.98677077  0.57346194     1.08700
H670        H  0.17400881  0.61188727  0.56270291     0.40500
O671        O  0.18323402  0.59600069  0.56504525    -1.07700
O672        O  0.22534161  0.58010811  0.59232564    -0.64400
Ni673      Ni  0.19186886  0.59759961  0.59434329     1.26300
O674        O  0.11235499  0.56687813  0.56351129    -0.64600
O675        O  0.23154977  0.64630768  0.59381677    -0.76900
C676        C  0.16932170  0.58843941  0.63609958     0.86500
O677        O  0.19595841  0.59603688  0.62433470    -0.64100
Ni678      Ni  0.22074124  0.61073100  0.54537227     1.27400
Ni679      Ni  0.14441578  0.54803113  0.56410925     1.26100
H680        H  0.15938099  0.53317972  0.59713212     0.41100
O681        O  0.36974492  0.94433885  0.37458200    -0.78900
O682        O  0.36892452  0.90838816  0.46800472    -0.63600
O683        O  0.35849383  0.90151180  0.40900428    -1.10200
C684        C  0.26229168  0.92286687  0.42421022     1.08000
O685        O  0.31125978  0.87095954  0.47277769    -0.76800
O686        O  0.25995311  0.85193645  0.44273275    -0.64400
Ni687      Ni  0.39791346  0.93170091  0.39141207     1.34900
C688        C  0.26013710  0.83996530  0.42471462     0.86700
O689        O  0.40616436  0.89925115  0.43812763    -0.77300
O690        O  0.43026349  0.92245439  0.40689903    -0.87600
C691        C  0.34383387  0.88314631  0.47803601     0.86300
O692        O  0.41256624  0.97483565  0.40598573    -0.65800
O693        O  0.26655463  0.91741478  0.44341855    -0.85100
C694        C  0.41272587  0.98180356  0.42511535     0.87100
C695        C  0.43113238  0.90985040  0.42466703     1.08700
H696        H  0.33690511  0.94159754  0.43959038     0.40500
O697        O  0.32732208  0.91631580  0.43750254    -1.07700
O698        O  0.28384325  0.85771298  0.41085754    -0.64400
Ni699      Ni  0.31809012  0.90874528  0.40831038     1.26300
O700        O  0.39831453  0.95810146  0.43915859    -0.64600
O701        O  0.27890777  0.91841617  0.40897137    -0.76900
C702        C  0.34035106  0.92208728  0.36658412     0.86500
O703        O  0.31361755  0.90256513  0.37822044    -0.64100
Ni704      Ni  0.29010550  0.89497668  0.45734641     1.27400
Ni705      Ni  0.36608319  0.90702556  0.43843119     1.26100
H706        H  0.35076526  0.87702758  0.40539852     0.41100
O707        O  0.44563296  0.87299165  0.62767384    -0.78900
O708        O  0.40638503  0.87037696  0.53460949    -0.63600
O709        O  0.40144151  0.86048062  0.59362809    -1.10200
C710        C  0.42027534  0.76274688  0.57791536     1.08000
O711        O  0.36877467  0.81288295  0.52983594    -0.76800
O712        O  0.34975402  0.76235742  0.56024883    -0.64400
Ni713      Ni  0.43204793  0.90048319  0.61078470     1.34900
C714        C  0.33883660  0.76254746  0.57856969     0.86700
O715        O  0.39731261  0.90707471  0.56454802    -0.77300
O716        O  0.42173877  0.93225767  0.59533709    -0.87600
C717        C  0.38103929  0.84544541  0.52461823     0.86300
O718        O  0.47477308  0.91530535  0.59560401    -0.65800
O719        O  0.41421216  0.76699758  0.55884587    -0.85100
C720        C  0.48083526  0.91496182  0.57635426     0.87100
C721        C  0.40819178  0.93238409  0.57773929     1.08700
H722        H  0.44029752  0.83837166  0.56229885     0.40500
O723        O  0.41510474  0.82884110  0.56481135    -1.07700
O724        O  0.35757827  0.78591208  0.59239437    -0.64400
Ni725      Ni  0.40878518  0.82012745  0.59414353     1.26300
O726        O  0.45650901  0.89988585  0.56274835    -0.64600
O727        O  0.41786172  0.78050099  0.59325854    -0.76900
C728        C  0.42412318  0.84337521  0.63581213     0.86500
O729        O  0.40423659  0.81646464  0.62434603    -0.64100
Ni730      Ni  0.39251074  0.79135754  0.54516805     1.27400
Ni731      Ni  0.40564168  0.86747552  0.56413766     1.26100
H732        H  0.37709062  0.85271575  0.59756477     0.41100
O733        O  0.04317835  0.76701950  0.03594426    -0.78900
O734        O  0.03859984  0.74158827  0.13361613    -0.63600
O735        O  0.02789906  0.73332927  0.07460740    -1.10200
C736        C  0.43193547  0.75909376  0.08983110     1.08000
O737        O  0.48049110  0.70660283  0.13795300    -0.76800
O738        O  0.43012518  0.68873179  0.10780442    -0.64400
Ni739      Ni  0.06964071  0.76316467  0.05835131     1.34900
C740        C  0.43067254  0.67681523  0.08984288     0.86700
O741        O  0.07230350  0.72739707  0.10438352    -0.77300
O742        O  0.10285525  0.76242730  0.07786924    -0.87600
C743        C  0.01375589  0.71632428  0.14369387     0.86300
O744        O  0.07478299  0.80565965  0.07017691    -0.65800
O745        O  0.43672981  0.75410887  0.10899992    -0.85100
C746        C  0.07962582  0.81362987  0.08936571     0.87100
C747        C  0.10066795  0.74431187  0.09386857     1.08700
H748        H  0.00811340  0.77526553  0.10598075     0.40500
O749        O  0.49759886  0.75302461  0.10293856    -1.07700
O750        O  0.45443816  0.69476072  0.07603173    -0.64400
Ni751      Ni  0.48833391  0.74598601  0.07368945     1.26300
O752        O  0.06973915  0.79014514  0.10376649    -0.64600
O753        O  0.44870854  0.75503020  0.07454658    -0.76900
C754        C  0.01087639  0.75479155  0.03107314     0.86500
O755        O  0.48378349  0.74045403  0.04367636    -0.64100
Ni756      Ni  0.46009276  0.73139835  0.12268444     1.27400
Ni757      Ni  0.03508429  0.73890098  0.10414150     1.26100
H758        H  0.01904579  0.70866779  0.07087774     0.41100
O759        O  0.09856042  0.71022667  0.29918563    -0.78900
O760        O  0.07479742  0.70456896  0.20134144    -0.63600
O761        O  0.06546917  0.69452266  0.26031845    -1.10200
C762        C  0.09038726  0.60004153  0.24652010     1.08000
O763        O  0.03855680  0.64698803  0.19621027    -0.76800
O764        O  0.01846890  0.59763337  0.22718911    -0.64400
Ni765      Ni  0.09530237  0.73644962  0.27636114     1.34900
C766        C  0.00710114  0.59759202  0.24540739     0.86700
O767        O  0.05927974  0.73799363  0.23020996    -0.77300
O768        O  0.09476148  0.76928138  0.25642750    -0.87600
C769        C  0.05052208  0.67944562  0.19091157     0.86300
O770        O  0.13782985  0.74106697  0.26475547    -0.65800
O771        O  0.08338489  0.60264800  0.22739088    -0.85100
C772        C  0.14585698  0.74590768  0.24556030     0.87100
C773        C  0.07606235  0.76655651  0.24059035     1.08700
H774        H  0.10860072  0.67492809  0.22988442     0.40500
O775        O  0.08323758  0.66448079  0.23219076    -1.07700
O776        O  0.02556094  0.62039504  0.25949136    -0.64400
Ni777      Ni  0.07611891  0.65622451  0.26148495     1.26300
O778        O  0.12239855  0.73621815  0.23119583    -0.64600
O779        O  0.08785402  0.61846069  0.26138439    -0.76900
C780        C  0.08517882  0.67788508  0.30438088     0.86500
O781        O  0.07118844  0.65198203  0.29144360    -0.64100
Ni782      Ni  0.06194161  0.62635931  0.21271566     1.27400
Ni783      Ni  0.07140774  0.70119892  0.23079847     1.26100
H784        H  0.04080242  0.68584444  0.26393225     0.41100
O785        O  0.31156261  0.91610174  0.29502490    -0.78900
O786        O  0.31040605  0.87920337  0.20144214    -0.63600
O787        O  0.32081454  0.88343084  0.26042100    -1.10200
C788        C  0.41657172  0.50280236  0.24426164     1.08000
O789        O  0.36811542  0.90014419  0.19644895    -0.76800
O790        O  0.41977362  0.93286444  0.22599516    -0.64400
Ni791      Ni  0.28181624  0.87632559  0.27773138     1.34900
C792        C  0.41949492  0.91953364  0.24362124     0.86700
O793        O  0.27301294  0.83342157  0.23162739    -0.77300
O794        O  0.24803861  0.83562588  0.26194037    -0.87600
C795        C  0.33557070  0.87912788  0.19145642     0.86300
O796        O  0.26989671  0.90700049  0.26303626    -0.65800
O797        O  0.41274416  0.99114680  0.22580467    -0.85100
C798        C  0.26802274  0.91130592  0.24367761     0.87100
C799        C  0.24734089  0.82069655  0.24469783     1.08700
H800        H  0.34278266  0.94493926  0.23020025     0.40500
O801        O  0.35232080  0.92916668  0.23191414    -1.07700
O802        O  0.39546155  0.91229845  0.25754053    -0.64400
Ni803      Ni  0.36229743  0.93038677  0.26097392     1.26300
O804        O  0.28097960  0.89986759  0.22995393    -0.64600
O805        O  0.40274427  0.97869729  0.26031006    -0.76900
C806        C  0.34076934  0.92201836  0.30279920     0.86500
O807        O  0.36703830  0.92810035  0.29099776    -0.64100
Ni808      Ni  0.38908741  0.94530780  0.21179420     1.27400
Ni809      Ni  0.31327981  0.88113754  0.23103022     1.26100
H810        H  0.32759926  0.86600301  0.26424942     0.41100
O811        O  0.23906200  0.77353587  0.03986072    -0.78900
O812        O  0.27460658  0.80273605  0.13539145    -0.63600
O813        O  0.28030257  0.79977819  0.07627131    -1.10200
C814        C  0.25999309  0.68257713  0.09073929     1.08000
O815        O  0.31249627  0.78336741  0.14000861    -0.76800
O816        O  0.33211737  0.75375495  0.10882652    -0.64400
Ni817      Ni  0.24871187  0.80940460  0.06017871     1.34900
C818        C  0.34238173  0.76444974  0.09037768     0.86700
O819        O  0.28632711  0.84991987  0.10621561    -0.77300
O820        O  0.25461580  0.84741977  0.07813246    -0.87600
C821        C  0.29991033  0.80331448  0.14539323     0.86300
O822        O  0.20666398  0.77578861  0.07424891    -0.65800
O823        O  0.26791589  0.69289611  0.10974583    -0.85100
C824        C  0.20073397  0.77189837  0.09364114     0.87100
C825        C  0.27138147  0.86242691  0.09474085     1.08700
H826        H  0.24068185  0.73799105  0.10752116     0.40500
O827        O  0.26588421  0.75351633  0.10480566    -1.07700
O828        O  0.32289797  0.76799138  0.07662859    -0.64400
Ni829      Ni  0.27184191  0.75178922  0.07535724     1.26300
O830        O  0.22536443  0.78445070  0.10724304    -0.64600
O831        O  0.26155188  0.70285000  0.07573358    -0.76900
C832        C  0.25802509  0.76111765  0.03312313     0.86500
O833        O  0.27613331  0.75276693  0.04524292    -0.64100
Ni834      Ni  0.28919474  0.73857294  0.12400761     1.27400
Ni835      Ni  0.27619891  0.80165897  0.10593105     1.26100
H836        H  0.30457534  0.81630776  0.07217297     0.41100
O837        O  0.25376820  0.97885154  0.04143107    -0.78900
O838        O  0.21112212  0.97792216  0.13369690    -0.63600
O839        O  0.21875214  0.98828868  0.07476750    -1.10200
C840        C  0.33498871  0.58755936  0.09085642     1.08000
O841        O  0.23384968  0.53900672  0.13964279    -0.76800
O842        O  0.26426831  0.58802341  0.10868583    -0.64400
Ni843      Ni  0.21274599  0.94918173  0.05791190     1.34900
C844        C  0.25298490  0.58726190  0.09037022     0.86700
O845        O  0.16704630  0.94089856  0.10281230    -0.77300
O846        O  0.17101454  0.91550950  0.07307280    -0.87600
C847        C  0.21121481  0.00303907  0.14378681     0.86300
O848        O  0.24254046  0.93761745  0.07372167    -0.65800
O849        O  0.32477992  0.58433409  0.10993044    -0.85100
C850        C  0.24576234  0.93599095  0.09319759     0.87100
C851        C  0.15508430  0.91505031  0.08988526     1.08700
H852        H  0.27908626  0.51214498  0.10743839     0.40500
O853        O  0.26362752  0.52179179  0.10474314    -1.07700
O854        O  0.24887521  0.56395779  0.07664444    -0.64400
Ni855      Ni  0.26586412  0.52975372  0.07528270     1.26300
O856        O  0.23324566  0.94870461  0.10636502    -0.64600
O857        O  0.31461138  0.56917227  0.07577352    -0.76900
C858        C  0.25781087  0.50587889  0.03367999     0.86500
O859        O  0.26486887  0.53281957  0.04510038    -0.64100
Ni860      Ni  0.27884706  0.56004861  0.12396768     1.27400
Ni861      Ni  0.21474465  0.98100166  0.10418524     1.26100
H862        H  0.20155039  0.49716439  0.07181267     0.41100
O863        O  0.10207158  0.90420083  0.29526908    -0.78900
O864        O  0.13557074  0.94092013  0.20003118    -0.63600
O865        O  0.12987732  0.94532321  0.25907909    -1.10200
C866        C  0.01301238  0.92491801  0.24300559     1.08000
O867        O  0.11471825  0.97753887  0.19487189    -0.76800
O868        O  0.08301381  0.99611857  0.22526184    -0.62600
Ni869      Ni  0.13785855  0.91263502  0.27513655     1.34900
C870        C  0.09771939  0.51185099  0.24631089     0.86700
O871        O  0.18148272  0.95205131  0.23021238    -0.77300
O872        O  0.17584872  0.91742270  0.25743855    -0.87600
C873        C  0.13552973  0.96581059  0.18986756     0.86300
O874        O  0.10328003  0.87151898  0.26069753    -0.65800
O875        O  0.02336757  0.93139383  0.22395111    -0.85100
C876        C  0.10150959  0.86593142  0.24127661     0.87100
C877        C  0.19269686  0.93577092  0.24161371     1.08700
H878        H  0.06936546  0.90573606  0.22737148     0.40500
O879        O  0.08461327  0.93098390  0.22995772    -1.07700
O880        O  0.09846976  0.98841671  0.25748913    -0.64400
Ni881      Ni  0.08203461  0.93733047  0.25930953     1.26300
O882        O  0.11617565  0.89089809  0.22795350    -0.64600
O883        O  0.03321025  0.92749389  0.25831641    -0.76900
C884        C  0.09068945  0.92416100  0.30181280     0.86500
O885        O  0.08252498  0.94214901  0.28943641    -0.64100
Ni886      Ni  0.06947295  0.95339452  0.21026518     1.27400
Ni887      Ni  0.13303824  0.94171445  0.22950862     1.26100
H888        H  0.14647060  0.96940885  0.26348666     0.41100
O889        O  0.41321287  0.81031103  0.70671494    -0.78900
O890        O  0.37854533  0.81254774  0.80160670    -0.63600
O891        O  0.38349984  0.82240570  0.74244027    -1.10200
C892        C  0.49936958  0.92120412  0.75789749     1.08000
O893        O  0.39765108  0.86981724  0.80648794    -0.76800
O894        O  0.42738228  0.91989152  0.77582736    -0.64400
Ni895      Ni  0.37531435  0.78233429  0.72566564     1.34900
C896        C  0.41667839  0.91949622  0.75739323     0.86700
O897        O  0.33304203  0.77611575  0.77164930    -0.77300
O898        O  0.33585861  0.74916247  0.74247907    -0.87600
C899        C  0.37752048  0.83715613  0.81160977     0.86300
O900        O  0.40755768  0.77246554  0.74020979    -0.65800
O901        O  0.48881498  0.91783192  0.77691901    -0.85100
C902        C  0.41167668  0.77060917  0.75960010     0.87100
C903        C  0.32068219  0.74956176  0.75936630     1.08700
H904        H  0.44464910  0.84537824  0.77398735     0.40500
O905        O  0.42875858  0.85452838  0.77135882    -1.07700
O906        O  0.41334530  0.89668738  0.74355472    -0.64400
Ni907      Ni  0.43090074  0.86303939  0.74194402     1.26300
O908        O  0.39949395  0.78303189  0.77326472    -0.64600
O909        O  0.47938703  0.90274240  0.74271238    -0.76900
C910        C  0.42261846  0.84095829  0.69965766     0.86500
O911        O  0.42995804  0.86714548  0.71181568    -0.64100
Ni912      Ni  0.44281650  0.89229936  0.79085968     1.27400
Ni913      Ni  0.38085424  0.81556787  0.77202251     1.26100
H914        H  0.36653815  0.82965194  0.73836034     0.41100
O915        O  0.26472045  0.73500676  0.96161139    -0.78900
O916        O  0.30171798  0.77464051  0.86826073    -0.63600
O917        O  0.29647415  0.77902993  0.92730022    -1.10200
C918        C  0.17984027  0.75950604  0.91211321     1.08000
O919        O  0.28092007  0.81134693  0.86310391    -0.76800
O920        O  0.25012120  0.83075151  0.89386080    -0.64400
Ni921      Ni  0.30466718  0.74705076  0.94392459     1.34900
C922        C  0.26126302  0.84173553  0.91216746     0.86700
O923        O  0.34730584  0.78430665  0.89826292    -0.77300
O924        O  0.34563464  0.75554270  0.92774165    -0.87600
C925        C  0.30167452  0.79950673  0.85804414     0.86300
O926        O  0.27456401  0.70483022  0.92876345    -0.65800
O927        O  0.18996737  0.76610176  0.89300157    -0.85100
C928        C  0.27047805  0.69946885  0.90933485     0.87100
C929        C  0.36028433  0.77082938  0.91063634     1.08700
H930        H  0.23557389  0.74005169  0.89600398     0.40500
O931        O  0.25108782  0.76529353  0.89848588    -1.07700
O932        O  0.26581821  0.82300425  0.92601801    -0.64400
Ni933      Ni  0.24895936  0.77180652  0.92786183     1.26300
O934        O  0.28167802  0.72445549  0.89601751    -0.64600
O935        O  0.20033009  0.76233384  0.92728299    -0.76900
C936        C  0.25679514  0.75678599  0.96952732     0.86500
O937        O  0.25009598  0.77673351  0.95796815    -0.64100
Ni938      Ni  0.23588719  0.78776334  0.87891867     1.27400
Ni939      Ni  0.29931391  0.77525280  0.89777989     1.26100
H940        H  0.31323688  0.80318632  0.93150979     0.41100
O941        O  0.20415710  0.61018625  0.70654969    -0.78900
O942        O  0.20493060  0.57467387  0.80078960    -0.63600
O943        O  0.19402232  0.56864303  0.74181718    -1.10200
C944        C  0.09581113  0.58668535  0.75774297     1.08000
O945        O  0.14748231  0.53702224  0.80597000    -0.76800
O946        O  0.09601752  0.51736134  0.77610346    -0.64400
Ni947      Ni  0.23328426  0.60041510  0.72456503     1.34900
C948        C  0.09619807  0.50560285  0.75804405     0.86700
O949        O  0.24172022  0.56598986  0.77060113    -0.77300
O950        O  0.26720676  0.59430376  0.74073652    -0.87600
C951        C  0.18019531  0.54927084  0.81089566     0.86300
O952        O  0.24419428  0.64281770  0.73907312    -0.65800
O953        O  0.10081392  0.58183634  0.77692386    -0.85100
C954        C  0.24645540  0.64909649  0.75842230     0.87100
C955        C  0.26777382  0.57977075  0.75785970     1.08700
H956        H  0.17196932  0.60769189  0.77284422     0.40500
O957        O  0.16258664  0.58245684  0.77071294    -1.07700
O958        O  0.11972220  0.52350440  0.74414518    -0.64400
Ni959      Ni  0.15292237  0.57471159  0.74157296     1.26300
O960        O  0.23403811  0.62475889  0.77221864    -0.64600
O961        O  0.11274956  0.58289705  0.74245038    -0.76900
C962        C  0.17369071  0.58823419  0.69953508     0.86500
O963        O  0.14790312  0.56850664  0.71167676    -0.64100
Ni964      Ni  0.12554819  0.56044620  0.79068639     1.27400
Ni965      Ni  0.20165991  0.57361559  0.77125355     1.26100
H966        H  0.18695741  0.54442470  0.73789825     0.41100
O967        O  0.27162036  0.54319843  0.96473790    -0.78900
O968        O  0.24345406  0.53795543  0.86739226    -0.63600
O969        O  0.23607787  0.52793486  0.92645093    -1.10200
C970        C  0.25372293  0.93023296  0.91193475     1.08000
O971        O  0.20141758  0.97815062  0.86258434    -0.76800
O972        O  0.18195241  0.92873210  0.89365133    -0.64400
Ni973      Ni  0.26669038  0.56954972  0.94251328     1.34900
C974        C  0.17133500  0.92905567  0.91201788     0.86700
O975        O  0.22928153  0.57175007  0.89677745    -0.77300
O976        O  0.26473665  0.60243137  0.92321473    -0.87600
C977        C  0.21912963  0.51258275  0.85711520     0.86300
O978        O  0.30881352  0.57476957  0.92995096    -0.65800
O979        O  0.24625014  0.93276530  0.89286713    -0.85100
C980        C  0.31606409  0.57954610  0.91067055     0.87100
C981        C  0.24601787  0.60005892  0.90744791     1.08700
H982        H  0.27875819  0.50876852  0.89576599     0.40500
O983        O  0.24781392  0.99526507  0.89772960    -1.07700
O984        O  0.19038727  0.95241431  0.92577076    -0.64400
Ni985      Ni  0.24144250  0.98774817  0.92710321     1.26300
O986        O  0.29209058  0.56980854  0.89664586    -0.64600
O987        O  0.25194462  0.94903186  0.92688464    -0.76900
C988        C  0.25642637  0.51083988  0.97020328     0.86500
O989        O  0.23758385  0.98454098  0.95725976    -0.64100
Ni990      Ni  0.22485453  0.95689999  0.87855198     1.27400
Ni991      Ni  0.24121165  0.53472216  0.89689680     1.26100
H992        H  0.21155667  0.51946721  0.93033516     0.41100
O993        O  0.47681401  0.75056679  0.95953575    -0.78900
O994        O  0.47949706  0.71540894  0.86616209    -0.63600
O995        O  0.48903978  0.71896283  0.92530386    -1.10200
C996        C  0.08307305  0.83312794  0.91132175     1.08000
O997        O  0.03710140  0.73288650  0.86165660    -0.76800
O998        O  0.08485797  0.76201635  0.89332564    -0.64400
Ni999      Ni  0.44953001  0.70906937  0.94296104     1.34900
C1000       C  0.08431210  0.75188696  0.91189985     0.86700
O1001       O  0.44116221  0.66954979  0.89591171    -0.77300
O1002       O  0.41807104  0.66680029  0.92775633    -0.87600
C1003       C  0.50430124  0.71409012  0.85646440     0.86300
O1004       O  0.43318065  0.73586487  0.92814333    -0.65800
O1005       O  0.08182905  0.82288440  0.89239334    -0.85100
C1006       C  0.43418806  0.74412419  0.90917009     0.87100
C1007       C  0.41682528  0.65426290  0.90963884     1.08700
H1008       H  0.00885344  0.77702733  0.89355510     0.40500
O1009       O  0.01870251  0.76182848  0.89651378    -1.07700
O1010       O  0.06118283  0.74861826  0.92551367    -0.64400
Ni1011     Ni  0.02519897  0.76337328  0.92599365     1.26300
O1012       O  0.45039163  0.73687207  0.89514795    -0.64600
O1013       O  0.06313012  0.81279844  0.92598464    -0.76900
C1014       C  0.00103154  0.75150855  0.96849196     0.86500
O1015       O  0.02758963  0.76324601  0.95604301    -0.64100
Ni1016     Ni  0.05782207  0.77743538  0.87782768     1.27400
Ni1017     Ni  0.48184471  0.71699731  0.89581456     1.26100
H1018       H  0.99516307  0.69837959  0.92864787     0.41100
O1019       O  0.41320827  0.61604660  0.70222663    -0.78900
O1020       O  0.44298912  0.63943028  0.79951781    -0.63600
O1021       O  0.44845783  0.63491377  0.74042189    -1.10200
C1022       C  0.42450670  0.51618452  0.75583544     1.08000
O1023       O  0.47891450  0.61778486  0.80478724    -0.76800
O1024       O  0.49770050  0.58784419  0.77350109    -0.64400
Ni1025     Ni  0.41759073  0.64625781  0.72488389     1.34900
C1026       C  0.00691650  0.59420156  0.75725570     0.86700
O1027       O  0.45666775  0.68657847  0.76983407    -0.77300
O1028       O  0.41885846  0.68029393  0.74461410    -0.87600
C1029       C  0.46743931  0.63881215  0.80985968     0.86300
O1030       O  0.37610213  0.60857033  0.73748889    -0.65800
O1031       O  0.43333622  0.52712433  0.77466261    -0.85100
C1032       C  0.36916670  0.60669193  0.75680079     0.87100
C1033       C  0.43863549  0.69737797  0.75987461     1.08700
H1034       H  0.40729474  0.57405851  0.77240863     0.40500
O1035       O  0.43250332  0.58879322  0.76942734    -1.07700
O1036       O  0.48793875  0.60003615  0.74085746    -0.64400
Ni1037     Ni  0.43733357  0.58570089  0.73995877     1.26300
O1038       O  0.39346310  0.62147949  0.77065433    -0.64600
O1039       O  0.42522434  0.53606424  0.74081219    -0.76900
C1040       C  0.42551353  0.59620674  0.69694602     0.86500
O1041       O  0.43981027  0.58440756  0.70978065    -0.64100
Ni1042     Ni  0.45501975  0.57303613  0.78874474     1.27400
Ni1043     Ni  0.44450772  0.63752590  0.77003068     1.26100
H1044       H  0.47286421  0.65055107  0.73617527     0.41100
C1045       C  0.49476491  0.68766977  0.84001913    -0.11300
C1046       C  0.48371457  0.66449124  0.82671249    -0.12800
C1047       C  0.10992200  0.86971054  0.91623869    -0.11300
C1048       C  0.13637317  0.89921387  0.91700374    -0.12800
C1049       C  0.35311142  0.59969273  0.90500578    -0.11300
C1050       C  0.38430173  0.62218352  0.90459099    -0.12800
C1051       C  0.06820925  0.59560499  0.75334372    -0.11300
C1052       C  0.04178428  0.59870733  0.75268914    -0.12800
C1053       C  0.33215469  0.59014875  0.76258408    -0.11300
C1054       C  0.30091383  0.58136550  0.76287431    -0.12800
C1055       C  0.19008494  0.53272378  0.82730087    -0.11300
C1056       C  0.20204591  0.52134664  0.84047482    -0.12800
C1057       C  0.39187501  0.77005332  0.90481198    -0.11300
C1058       C  0.41417632  0.76120280  0.90386364    -0.12800
C1059       C  0.14324566  0.74976202  0.91666882    -0.11300
C1060       C  0.11377988  0.74663494  0.91728785    -0.12800
C1061       C  0.25433898  0.66309999  0.90248319    -0.11300
C1062       C  0.24613590  0.63210073  0.90171877    -0.12800
C1063       C  0.26327620  0.90317539  0.91657189    -0.11300
C1064       C  0.26630342  0.87670678  0.91704565    -0.12800
C1065       C  0.03623562  0.94752389  0.75132113    -0.11300
C1066       C  0.06601410  0.97353588  0.75087069    -0.12800
C1067       C  0.28893032  0.71699783  0.76469881    -0.11300
C1068       C  0.26642053  0.68585995  0.76450548    -0.12800
C1069       C  0.41360194  0.97806197  0.75268059    -0.11300
C1070       C  0.41084423  0.94873683  0.75229578    -0.12800
C1071       C  0.42894457  0.75113255  0.76588859    -0.11300
C1072       C  0.43797116  0.72890502  0.76602184    -0.12800
C1073       C  0.32768190  0.81583006  0.84131963    -0.11300
C1074       C  0.35102111  0.82723883  0.82808109    -0.12800
C1075       C  0.25918059  0.50754602  0.01119286    -0.11300
C1076       C  0.25717143  0.50547680  0.99233674    -0.12800
C1077       C  0.16161503  0.98236954  0.17333959    -0.11300
C1078       C  0.18495031  0.99376316  0.16018698    -0.12800
C1079       C  0.25766810  0.75696544  0.01081610    -0.11300
C1080       C  0.25567213  0.75754723  0.99198763    -0.12800
C1081       C  0.27110516  0.89411167  0.10063917    -0.11300
C1082       C  0.26247521  0.91653136  0.10018828    -0.12800
C1083       C  0.25021333  0.64599057  0.08610929    -0.11300
C1084       C  0.24728516  0.61660907  0.08538660    -0.12800
C1085       C  0.45002740  0.91507515  0.24755994    -0.11300
C1086       C  0.47980632  0.91885229  0.24654566    -0.12800
C1087       C  0.22503714  0.93592283  0.23662416    -0.11300
C1088       C  0.24791081  0.92784022  0.23738145    -0.12800
C1089       C  0.32657696  0.85268719  0.17516652    -0.11300
C1090       C  0.31591135  0.82930489  0.16204329    -0.12800
C1091       C  0.10302334  0.54670397  0.25168357    -0.11300
C1092       C  0.10010693  0.57321163  0.25132623    -0.12800
C1093       C  0.08475793  0.82945933  0.23466338    -0.11300
C1094       C  0.07632707  0.79841245  0.23434563    -0.12800
C1095       C  0.47143182  0.56812966  0.24917234    -0.11300
C1096       C  0.44424066  0.53918320  0.24881983    -0.12800
C1097       C  0.18314460  0.76623515  0.24035151    -0.11300
C1098       C  0.21436657  0.78875837  0.23995811    -0.12800
C1099       C  0.00498596  0.75694038  0.00928810    -0.11300
C1100       C  0.00571380  0.75789967  0.99048680    -0.12800
C1101       C  0.16414169  0.75461597  0.10003552    -0.11300
C1102       C  0.13291126  0.74546158  0.10018127    -0.12800
C1103       C  0.37750314  0.77027344  0.08520782    -0.11300
C1104       C  0.40439268  0.76802157  0.08548470    -0.12800
C1105       C  0.10021427  0.85097045  0.09441852    -0.11300
C1106       C  0.12292021  0.88214607  0.09446295    -0.12800
C1107       C  0.37150979  0.61494331  0.08626471    -0.11300
C1108       C  0.40084270  0.64159985  0.08539951    -0.12800
C1109       C  0.02329077  0.70002396  0.16036316    -0.11300
C1110       C  0.03460920  0.68859536  0.17385068    -0.12800
C1111       C  0.42370107  0.84182627  0.65834336    -0.11300
C1112       C  0.42496681  0.84442480  0.67721465    -0.12800
C1113       C  0.33897959  0.92054674  0.34409044    -0.11300
C1114       C  0.34255829  0.92215487  0.32528816    -0.12800
C1115       C  0.35314496  0.86659925  0.49469755    -0.11300
C1116       C  0.36456430  0.85496410  0.50802119    -0.12800
C1117       C  0.17175111  0.58931407  0.65846410    -0.11300
C1118       C  0.16978994  0.58751439  0.67726904    -0.12800
C1119       C  0.01609068  0.93169439  0.56817327    -0.11300
C1120       C  0.04696637  0.95485181  0.56767799    -0.12800
C1121       C  0.30389577  0.73261571  0.58348238    -0.11300
C1122       C  0.27730280  0.70318701  0.58306199    -0.12800
C1123       C  0.08754102  0.92501132  0.32417876    -0.11300
C1124       C  0.08895607  0.92342350  0.34301423    -0.12800
C1125       C  0.49514491  0.91959019  0.42925581    -0.11300
C1126       C  0.46383585  0.91052332  0.42962214    -0.12800
C1127       C  0.20958856  0.93661306  0.41881207    -0.11300
C1128       C  0.23573359  0.93309982  0.41966753    -0.12800
C1129       C  0.14480078  0.99703075  0.49298267    -0.11300
C1130       C  0.15538989  0.51875594  0.50843006    -0.12800
C1131       C  0.08825504  0.67352718  0.34515995    -0.11300
C1132       C  0.08628888  0.67219773  0.32635148    -0.12800
C1133       C  0.09681216  0.55791157  0.43626813    -0.11300
C1134       C  0.08868870  0.58073728  0.43555603    -0.12800
C1135       C  0.08278940  0.81236068  0.41920587    -0.11300
C1136       C  0.07869814  0.78251552  0.41879244    -0.12800
C1137       C  0.22997197  0.80501319  0.42014499    -0.11300
C1138       C  0.20046638  0.77856565  0.42062061    -0.12800
C1139       C  0.42977637  0.51780443  0.43398914    -0.11300
C1140       C  0.45175853  0.54909276  0.43408327    -0.12800
C1141       C  0.42278885  0.58844008  0.67495055    -0.11300
C1142       C  0.41924396  0.58739299  0.65616894    -0.12800
C1143       C  0.42842272  0.73460025  0.58206007    -0.11300
C1144       C  0.42986737  0.70726345  0.58214077    -0.12800
C1145       C  0.41618828  0.99560630  0.57211920    -0.11300
C1146       C  0.40797071  0.96453508  0.57247538    -0.12800
C1147       C  0.30545475  0.57933443  0.58168466    -0.11300
C1148       C  0.27638958  0.57680593  0.58278420    -0.12800
C1149       C  0.07875909  0.59384113  0.57171950    -0.11300
C1150       C  0.05698646  0.60335284  0.57152672    -0.12800
C1151       C  0.48962591  0.64814024  0.50627012    -0.11300
C1152       C  0.01546936  0.66253842  0.49485929    -0.12800
O1153       O  0.93112712  0.06811921  0.62682172    -0.78900
O1154       O  0.96784302  0.10674016  0.53369679    -0.63600
O1155       O  0.96332392  0.11249992  0.59278291    -1.10200
C1156       C  0.84677207  0.09332455  0.57745096     1.08000
O1157       O  0.94840460  0.14469818  0.52880576    -0.76800
O1158       O  0.91797352  0.16476592  0.55945597    -0.64400
Ni1159     Ni  0.97276186  0.08232054  0.61026810     1.34900
C1160       C  0.92884514  0.17545844  0.57784195     0.86700
O1161       O  0.51317098  0.11888226  0.56259736    -0.77300
O1162       O  0.50803892  0.08265194  0.58854285    -0.87600
C1163       C  0.96839854  0.13204550  0.52355737     0.86300
O1164       O  0.94592806  0.03926767  0.59506830    -0.65800
O1165       O  0.85723365  0.10044799  0.55841321    -0.85100
C1166       C  0.93846546  0.03275112  0.57592251     0.87100
C1167       C  0.52449643  0.10161058  0.57288839     1.08700
H1168       H  0.90202793  0.07378023  0.56151286     0.40500
O1169       O  0.91796199  0.09892256  0.56403347    -1.07700
O1170       O  0.93268180  0.15635222  0.59173361    -0.64400
Ni1171     Ni  0.91569987  0.10518028  0.59339249     1.26300
O1172       O  0.94653124  0.05674674  0.56223380    -0.64600
O1173       O  0.86701065  0.09568096  0.59267917    -0.76900
C1174       C  0.92305817  0.08960713  0.63500691     0.86500
O1175       O  0.91651567  0.10977525  0.62355444    -0.64100
Ni1176     Ni  0.90325982  0.12171815  0.54446001     1.27400
Ni1177     Ni  0.96584175  0.10775064  0.56329157     1.26100
H1178       H  0.97996932  0.13693511  0.59653989     0.41100
O1179       O  0.58261172  0.14390778  0.37548399    -0.78900
O1180       O  0.54240790  0.14657583  0.46773390    -0.63600
O1181       O  0.54839172  0.15528424  0.40869663    -1.10200
C1182       C  0.66350436  0.25370564  0.42480288     1.08000
O1183       O  0.56010762  0.20375265  0.47174480    -0.76800
O1184       O  0.59255547  0.25439941  0.44128340    -0.64400
Ni1185     Ni  0.54114673  0.11554642  0.39199514     1.34900
C1186       C  0.58175459  0.25365820  0.42282681     0.86700
O1187       O  0.49795640  0.10851983  0.43762873    -0.77300
O1188       O  0.49904151  0.08315416  0.40721692    -0.87600
C1189       C  0.54067207  0.17116831  0.47727482     0.86300
O1190       O  0.56932778  0.10185542  0.40787518    -0.65800
O1191       O  0.65269320  0.25029667  0.44377447    -0.85100
C1192       C  0.57457142  0.10204778  0.42727727     0.87100
C1193       C  0.98462780  0.08171514  0.42611226     1.08700
H1194       H  0.60876550  0.17940858  0.44055439     0.40500
O1195       O  0.59268187  0.18824787  0.43770896    -1.07700
O1196       O  0.57748150  0.22991468  0.40935680    -0.64400
Ni1197     Ni  0.59543668  0.19638374  0.40835302     1.26300
O1198       O  0.56463776  0.11724426  0.44042670    -0.64600
O1199       O  0.64360299  0.23616546  0.40939430    -0.76900
C1200       C  0.58965641  0.17298607  0.36703562     0.86500
O1201       O  0.59522172  0.19969491  0.37820399    -0.64100
Ni1202     Ni  0.60611858  0.22588739  0.45701746     1.27400
Ni1203     Ni  0.54519042  0.14884566  0.43822238     1.26100
H1204       H  0.53130870  0.16221411  0.40437025     0.41100
O1205       O  0.57641489  0.44535507  0.36852318    -0.78900
O1206       O  0.60329993  0.47083940  0.46571249    -0.63600
O1207       O  0.61224494  0.46804274  0.40672570    -1.10200
C1208       C  0.58938425  0.34967738  0.42205567     1.08000
O1209       O  0.63986673  0.45001099  0.47133710    -0.76800
O1210       O  0.66019660  0.41919276  0.44125785    -0.64400
Ni1211     Ni  0.58139619  0.47788487  0.39003351     1.34900
C1212       C  0.67219086  0.43053281  0.42313705     0.86700
O1213       O  0.61850901  0.01740592  0.43851977    -0.77300
O1214       O  0.58169596  0.01184684  0.41284255    -0.87600
C1215       C  0.62772358  0.47051610  0.47628918     0.86300
O1216       O  0.53905178  0.44141463  0.40263042    -0.65800
O1217       O  0.59520212  0.35957575  0.44120698    -0.85100
C1218       C  0.53145669  0.43841903  0.42185718     0.87100
C1219       C  0.60065713  0.02834436  0.42848686     1.08700
H1220       H  0.57025151  0.40613845  0.43742767     0.40500
O1221       O  0.59560596  0.42142029  0.43535258    -1.07700
O1222       O  0.65435169  0.43550476  0.40887421    -0.64400
Ni1223     Ni  0.60346170  0.41970000  0.40618644     1.26300
O1224       O  0.55509013  0.45254676  0.43606573    -0.64600
O1225       O  0.59287833  0.37048305  0.40687250    -0.76900
C1226       C  0.59319423  0.42970350  0.36320752     0.86500
O1227       O  0.60935694  0.42032396  0.37621998    -0.64100
Ni1228     Ni  0.61660120  0.40530164  0.45539257     1.27400
Ni1229     Ni  0.60623688  0.46978867  0.43622110     1.26100
H1230       H  0.63673541  0.48452888  0.40304260     0.41100
O1231       O  0.64033994  0.08221016  0.62685782    -0.78900
O1232       O  0.64457857  0.04662224  0.53313210    -0.63600
O1233       O  0.65281153  0.05086873  0.59225707    -1.10200
C1234       C  0.75099045  0.16714646  0.57767950     1.08000
O1235       O  0.70206425  0.06637831  0.52872648    -0.76800
O1236       O  0.75182453  0.09758152  0.55952997    -0.64400
Ni1237     Ni  0.61263310  0.04279957  0.60878286     1.34900
C1238       C  0.75088394  0.08554115  0.57765629     0.86700
O1239       O  0.60745624  0.00072661  0.56281589    -0.77300
O1240       O  0.58042369  0.00232910  0.59236390    -0.87600
C1241       C  0.66953585  0.04586079  0.52340883     0.86300
O1242       O  0.60099280  0.07325590  0.59365028    -0.65800
O1243       O  0.74724193  0.15744471  0.55847384    -0.85100
C1244       C  0.59986531  0.07754431  0.57422621     0.87100
C1245       C  0.57834732  0.48464685  0.57732597     1.08700
H1246       H  0.67590658  0.11219790  0.56128357     0.40500
O1247       O  0.68532727  0.09650040  0.56372903    -1.07700
O1248       O  0.72711458  0.08039539  0.59130958    -0.64400
Ni1249     Ni  0.69347741  0.09806254  0.59311463     1.26300
O1250       O  0.61387170  0.06659285  0.56086777    -0.64600
O1251       O  0.73327526  0.14640222  0.59276874    -0.76900
C1252       C  0.67011055  0.09027134  0.63475890     0.86500
O1253       O  0.69671109  0.09653200  0.62323442    -0.64100
Ni1254     Ni  0.72324716  0.11158393  0.54435532     1.27400
Ni1255     Ni  0.64673920  0.04853385  0.56268323     1.26100
H1256       H  0.65987618  0.03381543  0.59641412     0.41100
O1257       O  0.86854124  0.44698574  0.37448500    -0.78900
O1258       O  0.86817566  0.40608752  0.46695846    -0.63600
O1259       O  0.85730672  0.40236065  0.40801782    -1.10200
C1260       C  0.76084030  0.42276166  0.42430285     1.08000
O1261       O  0.81037984  0.37083405  0.47268225    -0.76800
O1262       O  0.75996714  0.35214831  0.44245902    -0.64400
Ni1263     Ni  0.89684139  0.43378033  0.39085879     1.34900
C1264       C  0.75995203  0.34068276  0.42428035     0.86700
O1265       O  0.90413451  0.39719814  0.43626973    -0.77300
O1266       O  0.92927437  0.42384777  0.40587321    -0.87600
C1267       C  0.84294639  0.38173246  0.47734622     0.86300
O1268       O  0.91083591  0.47596393  0.40641223    -0.65800
O1269       O  0.76530176  0.41704944  0.44341673    -0.85100
C1270       C  0.91158083  0.48150794  0.42578988     0.87100
C1271       C  0.92955407  0.40922472  0.42304543     1.08700
H1272       H  0.83663089  0.44162786  0.43961648     0.40500
O1273       O  0.82659492  0.41635563  0.43724522    -1.07700
O1274       O  0.78299502  0.35882360  0.41020208    -0.64400
Ni1275     Ni  0.81711046  0.40980480  0.40794484     1.26300
O1276       O  0.89774919  0.45675082  0.43923254    -0.64600
O1277       O  0.77784145  0.41923122  0.40897929    -0.76900
C1278       C  0.83919738  0.42496929  0.36630169     0.86500
O1279       O  0.81252744  0.40469899  0.37779739    -0.64100
Ni1280     Ni  0.78939306  0.39498014  0.45719514     1.27400
Ni1281     Ni  0.86478094  0.40601695  0.43744328     1.26100
H1282       H  0.84957795  0.37813268  0.40379184     0.41100
O1283       O  0.93362810  0.37579516  0.63133652    -0.78900
O1284       O  0.90575983  0.36918159  0.53368445    -0.63600
O1285       O  0.89933780  0.35984915  0.59281485    -1.10200
C1286       C  0.92247089  0.26444109  0.57792302     1.08000
O1287       O  0.86882695  0.31162935  0.52893623    -0.76800
O1288       O  0.85003649  0.26255410  0.55993062    -0.64400
Ni1289     Ni  0.93051004  0.40191236  0.60839622     1.34900
C1290       C  0.83966292  0.26247791  0.57841112     0.86700
O1291       O  0.89269282  0.40373120  0.56308143    -0.77300
O1292       O  0.93050448  0.43496350  0.58839763    -0.87600
C1293       C  0.88062395  0.34408793  0.52368048     0.86300
O1294       O  0.97172103  0.40455337  0.59618794    -0.65800
O1295       O  0.91451794  0.26689227  0.55895727    -0.85100
C1296       C  0.97914699  0.40973294  0.57693745     0.87100
C1297       C  0.91086088  0.43248736  0.57311848     1.08700
H1298       H  0.94037960  0.33917880  0.56140890     0.40500
O1299       O  0.91518301  0.32904798  0.56416495    -1.07700
O1300       O  0.85885086  0.28530846  0.59235002    -0.64400
Ni1301     Ni  0.90960590  0.32120980  0.59358371     1.26300
O1302       O  0.95524037  0.40067385  0.56286929    -0.64600
O1303       O  0.92103892  0.28323550  0.59295498    -0.76900
C1304       C  0.92057810  0.34354673  0.63665665     0.86500
O1305       O  0.90635522  0.31748546  0.62376413    -0.64100
Ni1306     Ni  0.89277373  0.29085232  0.54482053     1.27400
Ni1307     Ni  0.90397783  0.36625488  0.56320366     1.26100
H1308       H  0.87491547  0.35147351  0.59688057     0.41100
O1309       O  0.54265337  0.27209731  0.03818976    -0.78900
O1310       O  0.53693478  0.24063024  0.13515235    -0.63600
O1311       O  0.52787187  0.23566395  0.07604146    -1.10200
C1312       C  0.93194907  0.25941489  0.08919394     1.08000
O1313       O  0.97897268  0.20413329  0.13635485    -0.76800
O1314       O  0.92906104  0.18804536  0.10578115    -0.64400
Ni1315     Ni  0.56940955  0.26803924  0.06050258     1.34900
C1316       C  0.93010712  0.17705825  0.08761400     0.86700
O1317       O  0.57193209  0.22908325  0.10540921    -0.77300
O1318       O  0.60270995  0.26711011  0.07997993    -0.87600
C1319       C  0.51187772  0.21507636  0.14492908     0.86300
O1320       O  0.57228542  0.30881344  0.07357872    -0.65800
O1321       O  0.93629717  0.25352628  0.10827148    -0.85100
C1322       C  0.57786731  0.31548899  0.09288737     0.87100
C1323       C  0.60053364  0.24761608  0.09530804     1.08700
H1324       H  0.50659789  0.27567078  0.10740663     0.40500
O1325       O  0.99694327  0.25231588  0.10212011    -1.07700
O1326       O  0.95441556  0.19548444  0.07423695    -0.64400
Ni1327     Ni  0.98834922  0.24659802  0.07278877     1.26300
O1328       O  0.56842393  0.29096328  0.10656076    -0.64600
O1329       O  0.94887006  0.25583178  0.07381709    -0.76900
C1330       C  0.51030682  0.25617586  0.03261840     0.86500
O1331       O  0.98422351  0.24221854  0.04275128    -0.64100
Ni1332     Ni  0.95899114  0.22978774  0.12149775     1.27400
Ni1333     Ni  0.53414916  0.23972493  0.10562617     1.26100
H1334       H  0.52025672  0.21148115  0.07176440     0.41100
O1335       O  0.60312898  0.20939952  0.29794327    -0.78900
O1336       O  0.57531556  0.20185534  0.20036692    -0.63600
O1337       O  0.56816961  0.19347403  0.25951216    -1.10200
C1338       C  0.59205272  0.09834632  0.24567530     1.08000
O1339       O  0.53834297  0.14420519  0.19603044    -0.76800
O1340       O  0.51998810  0.09481945  0.22707406    -0.64400
Ni1341     Ni  0.59920760  0.23542298  0.27518584     1.34900
C1342       C  0.50873083  0.09525058  0.24525985     0.86700
O1343       O  0.56193955  0.23697166  0.22935363    -0.77300
O1344       O  0.59828842  0.26815840  0.25532537    -0.87600
C1345       C  0.55006597  0.17657258  0.19052940     0.86300
O1346       O  0.64091118  0.23917600  0.26294029    -0.65800
O1347       O  0.58531030  0.10114982  0.22650706    -0.85100
C1348       C  0.64838613  0.24435166  0.24370369     0.87100
C1349       C  0.57928384  0.26559003  0.23967167     1.08700
H1350       H  0.60988876  0.17267490  0.22895025     0.40500
O1351       O  0.58457585  0.16243677  0.23137604    -1.07700
O1352       O  0.52711517  0.11893934  0.25899154    -0.64400
Ni1353     Ni  0.57791322  0.15459004  0.26073082     1.26300
O1354       O  0.62445468  0.23432458  0.22958735    -0.64600
O1355       O  0.58910313  0.11643080  0.26060661    -0.76900
C1356       C  0.58825074  0.17711916  0.30354251     0.86500
O1357       O  0.57329480  0.15092533  0.29080669    -0.64100
Ni1358     Ni  0.56281525  0.12410367  0.21209736     1.27400
Ni1359     Ni  0.57328601  0.19954994  0.22990319     1.26100
H1360       H  0.54371273  0.18531930  0.26339357     0.41100
O1361       O  0.80926985  0.41677678  0.29474944    -0.78900
O1362       O  0.81177726  0.38071127  0.20082871    -0.63600
O1363       O  0.82102714  0.38558573  0.25997439    -1.10200
C1364       C  0.91683736  0.00153350  0.24478488     1.08000
O1365       O  0.86955022  0.40179660  0.19620267    -0.76800
O1366       O  0.91998266  0.43420644  0.22653566    -0.64400
Ni1367     Ni  0.78112533  0.37721565  0.27687799     1.34900
C1368       C  0.91943575  0.42200192  0.24457907     0.86700
O1369       O  0.77475684  0.33495096  0.23084836    -0.77300
O1370       O  0.74835315  0.33649472  0.26066737    -0.87600
C1371       C  0.83710813  0.38068847  0.19101219     0.86300
O1372       O  0.76953692  0.40783842  0.26201861    -0.65800
O1373       O  0.91348530  0.49295630  0.22549977    -0.85100
C1374       C  0.76839881  0.41260955  0.24267048     0.87100
C1375       C  0.74862746  0.32174737  0.24354143     1.08700
H1376       H  0.84292344  0.44669111  0.22903044     0.40500
O1377       O  0.85263030  0.43117461  0.23129135    -1.07700
O1378       O  0.89551121  0.41600545  0.25829412    -0.64400
Ni1379     Ni  0.86151213  0.43307649  0.26058202     1.26300
O1380       O  0.78144609  0.40113063  0.22900872    -0.64600
O1381       O  0.90099885  0.48169092  0.25993352    -0.76900
C1382       C  0.83912763  0.42474574  0.30246483     0.86500
O1383       O  0.86566517  0.43166462  0.29070252    -0.64100
Ni1384     Ni  0.89014721  0.44699668  0.21160686     1.27400
Ni1385     Ni  0.81421544  0.38295257  0.23044313     1.26100
H1386       H  0.82844104  0.36872540  0.26402494     0.41100
O1387       O  0.73351421  0.26562624  0.04239877    -0.78900
O1388       O  0.77623780  0.30515287  0.13462650    -0.63600
O1389       O  0.77927609  0.29924638  0.07558266    -1.10200
C1390       C  0.76041602  0.18287796  0.09086657     1.08000
O1391       O  0.81328603  0.28453415  0.13944244    -0.76800
O1392       O  0.83214568  0.25364161  0.10841773    -0.64400
Ni1393     Ni  0.74748463  0.30731252  0.05878080     1.34900
C1394       C  0.84269306  0.26504256  0.09008736     0.86700
O1395       O  0.78406836  0.35045625  0.10442026    -0.77300
O1396       O  0.75816444  0.34974000  0.07386567    -0.87600
C1397       C  0.80130860  0.30512714  0.14466322     0.86300
O1398       O  0.70552738  0.27968344  0.07464342    -0.65800
O1399       O  0.76750736  0.19320924  0.10992166    -0.85100
C1400       C  0.70035055  0.27430183  0.09401427     0.87100
C1401       C  0.77243059  0.36418967  0.09119078     1.08700
H1402       H  0.74143408  0.23870764  0.10718602     0.40500
O1403       O  0.76660517  0.25438090  0.10449114    -1.07700
O1404       O  0.82346428  0.26918963  0.07643063    -0.64400
Ni1405     Ni  0.77222367  0.25180117  0.07507506     1.26300
O1406       O  0.72529229  0.28408643  0.10723379    -0.64600
O1407       O  0.76302563  0.20327285  0.07570190    -0.76900
C1408       C  0.75533513  0.25843586  0.03383540     0.86500
O1409       O  0.77622436  0.25243813  0.04493653    -0.64100
Ni1410     Ni  0.78952578  0.23934135  0.12381011     1.27400
Ni1411     Ni  0.77605272  0.30253329  0.10509774     1.26100
H1412       H  0.80339831  0.31596058  0.07130159     0.41100
O1413       O  0.73559295  0.47355018  0.03558953    -0.78900
O1414       O  0.71342026  0.47908368  0.13328504    -0.63600
O1415       O  0.71606007  0.48876588  0.07410388    -1.10200
C1416       C  0.83506037  0.08834137  0.08814456     1.08000
O1417       O  0.73740167  0.03982445  0.13892424    -0.76800
O1418       O  0.76633552  0.08888089  0.10778683    -0.64400
Ni1419     Ni  0.70560293  0.44697298  0.05825765     1.34900
C1420       C  0.75304536  0.08738608  0.08997762     0.86700
O1421       O  0.66583999  0.44389028  0.10392295    -0.77300
O1422       O  0.67176571  0.41343475  0.07785892    -0.87600
C1423       C  0.71269474  0.50382134  0.14330280     0.86300
O1424       O  0.74372223  0.44349589  0.07055640    -0.65800
O1425       O  0.82647714  0.08487444  0.10751483    -0.85100
C1426       C  0.74660795  0.43903641  0.08984623     0.87100
C1427       C  0.65485955  0.41548050  0.09343983     1.08700
H1428       H  0.78171758  0.01366344  0.10537418     0.40500
O1429       O  0.76554095  0.02266355  0.10337548    -1.07700
O1430       O  0.74722759  0.06339633  0.07635660    -0.64400
Ni1431     Ni  0.76517015  0.03008765  0.07405695     1.26300
O1432       O  0.73209149  0.44842480  0.10393472    -0.64600
O1433       O  0.81349907  0.07019956  0.07342803    -0.76900
C1434       C  0.75522188  0.00590911  0.03262578     0.86500
O1435       O  0.76183661  0.03265275  0.04406540    -0.64100
Ni1436     Ni  0.78158917  0.06093887  0.12251203     1.27400
Ni1437     Ni  0.71442253  0.48210745  0.10372138     1.26100
H1438       H  0.70071635  0.99630642  0.07245508     0.41100
O1439       O  0.59771409  0.40077766  0.29115958    -0.78900
O1440       O  0.63326076  0.43945830  0.19849408    -0.63600
O1441       O  0.63008405  0.44550126  0.25750856    -1.10200
C1442       C  0.51441904  0.42932094  0.24330250     1.08000
O1443       O  0.61535869  0.47861354  0.19398603    -0.76800
O1444       O  0.58640867  0.49953136  0.22489238    -0.62600
Ni1445     Ni  0.63946233  0.41509652  0.27476685     1.34900
C1446       C  0.59915896  0.01024646  0.24509917     0.86700
O1447       O  0.67923990  0.44769069  0.22802852    -0.77300
O1448       O  0.68202872  0.42657152  0.25962568    -0.87600
C1449       C  0.63504650  0.46561186  0.18873108     0.86300
O1450       O  0.61292846  0.37202589  0.25951295    -0.65800
O1451       O  0.52463637  0.43644125  0.22420386    -0.85100
C1452       C  0.60494773  0.36552738  0.24042408     0.87100
C1453       C  0.69462007  0.43856978  0.24158932     1.08700
H1454       H  0.56798594  0.40756032  0.22659364     0.40500
O1455       O  0.58430797  0.43261680  0.22914837    -1.07700
O1456       O  0.60052791  0.49030865  0.25713643    -0.64400
Ni1457     Ni  0.58283121  0.43898709  0.25856966     1.26300
O1458       O  0.61210963  0.38954997  0.22688783    -0.64600
O1459       O  0.53454663  0.43056561  0.25831211    -0.76900
C1460       C  0.59072345  0.42270577  0.29979080     0.86500
O1461       O  0.58440773  0.44341860  0.28872099    -0.64100
Ni1462     Ni  0.57032761  0.45643312  0.20985075     1.27400
Ni1463     Ni  0.63185551  0.44064768  0.22803668     1.26100
H1464       H  0.64708037  0.46987571  0.26119063     0.41100
O1465       O  0.91598476  0.30874702  0.70816970    -0.78900
O1466       O  0.87719119  0.31195292  0.80126574    -0.63600
O1467       O  0.88332016  0.32096995  0.74216522    -1.10200
C1468       C  0.99900514  0.41893786  0.75817289     1.08000
O1469       O  0.89588477  0.36922691  0.80575698    -0.76800
O1470       O  0.92743071  0.41927897  0.77498218    -0.64400
Ni1471     Ni  0.87554805  0.28091953  0.72554042     1.34900
C1472       C  0.91688738  0.41868745  0.75648510     0.86700
O1473       O  0.83224818  0.27482891  0.77111512    -0.77300
O1474       O  0.83406604  0.24865158  0.74125710    -0.87600
C1475       C  0.87590766  0.33657797  0.81104534     0.86300
O1476       O  0.90497616  0.26854065  0.74116138    -0.65800
O1477       O  0.98804121  0.41583543  0.77709572    -0.85100
C1478       C  0.90968715  0.26813265  0.76058521     0.87100
C1479       C  0.81913936  0.24894152  0.75829275     1.08700
H1480       H  0.94365204  0.34428868  0.77414084     0.40500
O1481       O  0.92783049  0.35342886  0.77126097    -1.07700
O1482       O  0.91322092  0.39541902  0.74285930    -0.64400
Ni1483     Ni  0.93066994  0.36157533  0.74182079     1.26300
O1484       O  0.89871767  0.28227199  0.77383159    -0.64600
O1485       O  0.97915660  0.40104507  0.74281087    -0.76900
C1486       C  0.92384765  0.33835104  0.70013075     0.86500
O1487       O  0.93033332  0.36502595  0.71163137    -0.64100
Ni1488     Ni  0.94161826  0.39123204  0.79060214     1.27400
Ni1489     Ni  0.87998776  0.31450397  0.77174015     1.26100
H1490       H  0.86647895  0.32820552  0.73780963     0.41100
O1491       O  0.78220946  0.24889022  0.96534588    -0.78900
O1492       O  0.80004129  0.27147573  0.86726127    -0.63600
O1493       O  0.79921550  0.28131021  0.92626976    -1.10200
C1494       C  0.67929968  0.25535144  0.91252174     1.08000
O1495       O  0.77792600  0.30692528  0.86193258    -0.76800
O1496       O  0.74838449  0.32682455  0.89258527    -0.64400
Ni1497     Ni  0.81195199  0.25226455  0.94258754     1.34900
C1498       C  0.75999325  0.33879226  0.91066002     0.86700
O1499       O  0.84887629  0.28712633  0.89606309    -0.77300
O1500       O  0.84557568  0.25283195  0.92271107    -0.87600
C1501       C  0.79938214  0.29597131  0.85695329     0.86300
O1502       O  0.77427640  0.20937140  0.93127494    -0.65800
O1503       O  0.68869364  0.26171990  0.89331244    -0.85100
C1504       C  0.77041526  0.20093586  0.91214122     0.87100
C1505       C  0.86095100  0.27068674  0.90648476     1.08700
H1506       H  0.73639222  0.23737409  0.89607980     0.40500
O1507       O  0.75120375  0.26279759  0.89819922    -1.07700
O1508       O  0.76451994  0.32082052  0.92499814    -0.64400
Ni1509     Ni  0.75008702  0.27035095  0.92746680     1.26300
O1510       O  0.78395262  0.22397505  0.89753360    -0.64600
O1511       O  0.70045016  0.25833223  0.92737332    -0.76900
C1512       C  0.76287604  0.26186797  0.97050445     0.86500
O1513       O  0.75078940  0.27561941  0.95749468    -0.64100
Ni1514     Ni  0.73385318  0.28320160  0.87848396     1.27400
Ni1515     Ni  0.79991307  0.27492482  0.89676434     1.26100
H1516       H  0.81506476  0.30608557  0.92971226     0.41100
O1517       O  0.70839126  0.10328943  0.70330304    -0.78900
O1518       O  0.70416076  0.07615180  0.80077609    -0.63600
O1519       O  0.69316373  0.06899233  0.74177579    -1.10200
C1520       C  0.59763584  0.09195514  0.75730717     1.08000
O1521       O  0.64665882  0.03989716  0.80623350    -0.76800
O1522       O  0.59663904  0.02042558  0.77565323    -0.64400
Ni1523     Ni  0.73498347  0.09981136  0.72582807     1.34900
C1524       C  0.59577444  0.00974001  0.75715687     0.86700
O1525       O  0.73762683  0.06231563  0.77107741    -0.77300
O1526       O  0.76845502  0.09937299  0.74537074    -0.87600
C1527       C  0.67924562  0.05155369  0.81116153     0.86300
O1528       O  0.73873181  0.14145146  0.73811212    -0.65800
O1529       O  0.60088328  0.08473845  0.77631063    -0.85100
C1530       C  0.74380208  0.14879365  0.75737369     0.87100
C1531       C  0.76615767  0.07994508  0.76073257     1.08700
H1532       H  0.67349128  0.11061528  0.77326877     0.40500
O1533       O  0.66316700  0.08537541  0.77066035    -1.07700
O1534       O  0.61834666  0.02855344  0.74298305    -0.64400
Ni1535     Ni  0.65447707  0.07926901  0.74132093     1.26300
O1536       O  0.73484812  0.12493267  0.77141554    -0.64600
O1537       O  0.61635184  0.09059628  0.74218690    -0.76900
C1538       C  0.67599271  0.08964093  0.69816368     0.86500
O1539       O  0.65012561  0.07544442  0.71119576    -0.64100
Ni1540     Ni  0.62545251  0.06348371  0.79036501     1.27400
Ni1541     Ni  0.70029332  0.07387987  0.77130163     1.26100
H1542       H  0.68460378  0.04449140  0.73777276     0.41100
O1543       O  0.77974953  0.03867678  0.96156421    -0.78900
O1544       O  0.74139665  0.03935922  0.86826243    -0.63600
O1545       O  0.73649614  0.02765285  0.92718042    -1.10200
C1546       C  0.75499779  0.42853096  0.90891992     1.08000
O1547       O  0.70192749  0.47760635  0.86067131    -0.76800
O1548       O  0.68378269  0.42849715  0.89186812    -0.64400
Ni1549     Ni  0.76717469  0.06695572  0.94468393     1.34900
C1550       C  0.67391852  0.42915190  0.91038836     0.86700
O1551       O  0.73141520  0.07444424  0.89893895    -0.77300
O1552       O  0.75791191  0.09950918  0.92936008    -0.87600
C1553       C  0.71692097  0.01430324  0.85782590     0.86300
O1554       O  0.80984212  0.08103892  0.92964287    -0.65800
O1555       O  0.74769820  0.43182079  0.88991757    -0.85100
C1556       C  0.81590429  0.08271590  0.91028871     0.87100
C1557       C  0.74346173  0.09982238  0.91214191     1.08700
H1558       H  0.77659328  0.00769962  0.89554066     0.40500
O1559       O  0.74974860  0.49442393  0.89541135    -1.07700
O1560       O  0.69350889  0.45252658  0.92398745    -0.64400
Ni1561     Ni  0.74480473  0.48646558  0.92496013     1.26300
O1562       O  0.79150453  0.06905304  0.89658615    -0.64600
O1563       O  0.75352681  0.44691261  0.92412389    -0.76900
C1564       C  0.75793891  0.00858032  0.96903155     0.86500
O1565       O  0.74135767  0.48338237  0.95522117    -0.64100
Ni1566     Ni  0.72598241  0.45629434  0.87617151     1.27400
Ni1567     Ni  0.74073053  0.03554893  0.89778423     1.26100
H1568       H  0.71213602  0.01968391  0.93121104     0.41100
O1569       O  0.97769857  0.25401372  0.95888482    -0.78900
O1570       O  0.98058198  0.21364944  0.86621551    -0.63600
O1571       O  0.98876962  0.22015493  0.92526880    -1.10200
C1572       C  0.58611952  0.33313899  0.91128893     1.08000
O1573       O  0.53646840  0.23071936  0.86376085    -0.76800
O1574       O  0.58609874  0.26182377  0.89445174    -0.64400
Ni1575     Ni  0.94908408  0.21346341  0.94176151     1.34900
C1576       C  0.58482336  0.25036962  0.91278658     0.86700
O1577       O  0.94247900  0.16934750  0.89643604    -0.77300
O1578       O  0.91623196  0.17218058  0.92606647    -0.87600
C1579       C  0.00533543  0.21188052  0.85687531     0.86300
O1580       O  0.93737063  0.24311102  0.92596312    -0.65800
O1581       O  0.58280851  0.32251941  0.89230323    -0.85100
C1582       C  0.93621977  0.24678791  0.90649332     0.87100
C1583       C  0.91631898  0.15701816  0.90906601     1.08700
H1584       H  0.51108428  0.27822429  0.89508539     0.40500
O1585       O  0.52007169  0.26226196  0.89793942    -1.07700
O1586       O  0.56123648  0.24645881  0.92626909    -0.64400
Ni1587     Ni  0.52797730  0.26471403  0.92735810     1.26300
O1588       O  0.95040673  0.23565115  0.89334561    -0.64600
O1589       O  0.56804631  0.31306968  0.92655340    -0.76900
C1590       C  0.50468354  0.25742574  0.96918521     0.86500
O1591       O  0.53121066  0.26403394  0.95749965    -0.64100
Ni1592     Ni  0.55823827  0.27623778  0.87880070     1.27400
Ni1593     Ni  0.98258441  0.21674785  0.89573457     1.26100
H1594       H  0.49351332  0.20039169  0.93140896     0.41100
O1595       O  0.90697178  0.11005030  0.70486420    -0.78900
O1596       O  0.94072833  0.13547432  0.80162224    -0.63600
O1597       O  0.94563390  0.13274278  0.74236759    -1.10200
C1598       C  0.92300945  0.01435205  0.75616863     1.08000
O1599       O  0.97680755  0.11378848  0.80606125    -0.76800
O1600       O  0.99517431  0.08375240  0.77475971    -0.64400
Ni1601     Ni  0.91380387  0.14270954  0.72680970     1.34900
C1602       C  0.50681953  0.09575674  0.75731986     0.86700
O1603       O  0.95275090  0.18310799  0.77241660    -0.77300
O1604       O  0.91732379  0.17850017  0.74594292    -0.87600
C1605       C  0.96567490  0.13492135  0.81146523     0.86300
O1606       O  0.87227972  0.10653167  0.74029857    -0.65800
O1607       O  0.93029999  0.02403212  0.77529040    -0.85100
C1608       C  0.86607011  0.10424333  0.75970292     0.87100
C1609       C  0.93584813  0.19460058  0.76184957     1.08700
H1610       H  0.90503244  0.07081702  0.77332404     0.40500
O1611       O  0.93033132  0.08589848  0.77072103    -1.07700
O1612       O  0.98725246  0.09977445  0.74273499    -0.64400
Ni1613     Ni  0.93635634  0.08439598  0.74125246     1.26300
O1614       O  0.89077341  0.11806999  0.77331624    -0.64600
O1615       O  0.92533741  0.03519845  0.74131966    -0.76900
C1616       C  0.92395485  0.09503187  0.69870111     0.86500
O1617       O  0.94067021  0.08540335  0.71113714    -0.64100
Ni1618     Ni  0.95242331  0.06941138  0.78983551     1.27400
Ni1619     Ni  0.94169699  0.13442905  0.77206252     1.26100
H1620       H  0.96988919  0.14910411  0.73816386     0.41100
C1621       C  0.99547561  0.18474234  0.84088943    -0.11300
C1622       C  0.98319730  0.16099587  0.82795457    -0.12800
C1623       C  0.61304936  0.36987240  0.91552105    -0.11300
C1624       C  0.63925618  0.39949266  0.91580723    -0.12800
C1625       C  0.85252884  0.10299202  0.90407436    -0.11300
C1626       C  0.88368649  0.12533830  0.90388928    -0.12800
C1627       C  0.56953279  0.10020512  0.75289240    -0.11300
C1628       C  0.54220687  0.10176722  0.75242969    -0.12800
C1629       C  0.82934109  0.08811343  0.76598271    -0.11300
C1630       C  0.79835711  0.08018598  0.76641711    -0.12800
C1631       C  0.68874068  0.03511855  0.82782785    -0.11300
C1632       C  0.70036875  0.02364903  0.84114844    -0.12800
C1633       C  0.89226781  0.27002784  0.89981025    -0.11300
C1634       C  0.91541719  0.26226429  0.89961035    -0.12800
C1635       C  0.64286489  0.24612728  0.91747146    -0.11300
C1636       C  0.61376364  0.24401271  0.91805456    -0.12800
C1637       C  0.75272484  0.16354985  0.90730916    -0.11300
C1638       C  0.74373720  0.13230658  0.90733736    -0.12800
C1639       C  0.76378892  0.40103491  0.91341567    -0.11300
C1640       C  0.76593563  0.37420673  0.91461750    -0.12800
C1641       C  0.53686406  0.44832801  0.75122398    -0.11300
C1642       C  0.56622195  0.47477708  0.75050662    -0.12800
C1643       C  0.78669332  0.21680563  0.76321160    -0.11300
C1644       C  0.76384413  0.18580281  0.76293040    -0.12800
C1645       C  0.91443823  0.47755505  0.75176183    -0.11300
C1646       C  0.91150502  0.44815169  0.75118008    -0.12800
C1647       C  0.92649086  0.24855705  0.76746750    -0.11300
C1648       C  0.93529128  0.22618838  0.76791235    -0.12800
C1649       C  0.82571665  0.31348785  0.84051958    -0.11300
C1650       C  0.84930843  0.32633048  0.82746144    -0.12800
C1651       C  0.75709746  0.00795833  0.01021904    -0.11300
C1652       C  0.75645081  0.00564946  0.99140267    -0.12800
C1653       C  0.66212697  0.48228053  0.17256210    -0.11300
C1654       C  0.68603954  0.49402480  0.15967056    -0.12800
C1655       C  0.75567181  0.25798474  0.01135791    -0.11300
C1656       C  0.75598168  0.26053415  0.99254159    -0.12800
C1657       C  0.77260513  0.39671966  0.09593560    -0.11300
C1658       C  0.76402541  0.41930886  0.09544120    -0.12800
C1659       C  0.75031127  0.14616975  0.08633030    -0.11300
C1660       C  0.74707719  0.11667755  0.08540691    -0.12800
C1661       C  0.94951598  0.41730430  0.24935904    -0.11300
C1662       C  0.97909928  0.42062572  0.24902524    -0.12800
C1663       C  0.72680401  0.43876306  0.23626117    -0.11300
C1664       C  0.74913151  0.42996350  0.23641659    -0.12800
C1665       C  0.82835056  0.35428966  0.17464598    -0.11300
C1666       C  0.81759239  0.33099702  0.16141795    -0.12800
C1667       C  0.60465575  0.04504298  0.25071153    -0.11300
C1668       C  0.60185227  0.07159670  0.25045339    -0.12800
C1669       C  0.58838403  0.32883410  0.23411543    -0.11300
C1670       C  0.57979945  0.29771277  0.23365650    -0.12800
C1671       C  0.97065588  0.06739069  0.24996049    -0.11300
C1672       C  0.94397781  0.03802462  0.24964131    -0.12800
C1673       C  0.68550639  0.26579552  0.23834619    -0.11300
C1674       C  0.71635576  0.28931489  0.23841596    -0.12800
C1675       C  0.50507064  0.25693015  0.01047854    -0.11300
C1676       C  0.50704085  0.25898086  0.99162872    -0.12800
C1677       C  0.66409127  0.25780782  0.10091036    -0.11300
C1678       C  0.63293935  0.24888713  0.10132361    -0.12800
C1679       C  0.87784619  0.27105668  0.08491022    -0.11300
C1680       C  0.90468955  0.26876010  0.08504560    -0.12800
C1681       C  0.59925653  0.35235983  0.09882188    -0.11300
C1682       C  0.62280967  0.38319916  0.09910606    -0.12800
C1683       C  0.87112404  0.11569699  0.08291829    -0.11300
C1684       C  0.90039022  0.14233649  0.08237743    -0.12800
C1685       C  0.52113984  0.19753369  0.16107427    -0.11300
C1686       C  0.53288116  0.18558346  0.17404830    -0.12800
C1687       C  0.92227184  0.33827664  0.65875642    -0.11300
C1688       C  0.92477922  0.34013258  0.67761636    -0.12800
C1689       C  0.83786472  0.42431937  0.34378155    -0.11300
C1690       C  0.84126331  0.42597295  0.32495964    -0.12800
C1691       C  0.85208335  0.36490762  0.49394454    -0.11300
C1692       C  0.86372826  0.35329015  0.50715615    -0.12800
C1693       C  0.67219350  0.09209481  0.65721702    -0.11300
C1694       C  0.67037442  0.09044338  0.67607944    -0.12800
C1695       C  0.51475705  0.42936272  0.57243690    -0.11300
C1696       C  0.54586682  0.45227764  0.57237135    -0.12800
C1697       C  0.80474256  0.23280059  0.58329631    -0.11300
C1698       C  0.77818700  0.20350445  0.58243771    -0.12800
C1699       C  0.59073819  0.42334265  0.32228709    -0.11300
C1700       C  0.59302291  0.42357862  0.34112387    -0.12800
C1701       C  0.99324023  0.41770715  0.42803145    -0.11300
C1702       C  0.96203498  0.40917959  0.42777187    -0.12800
C1703       C  0.70728367  0.43536426  0.41900476    -0.11300
C1704       C  0.73366044  0.43224072  0.41993668    -0.12800
C1705       C  0.64347185  0.49600550  0.49322127    -0.11300
C1706       C  0.65992410  0.01923319  0.50705328    -0.12800
C1707       C  0.59069092  0.17414078  0.34455154    -0.11300
C1708       C  0.58880775  0.17200681  0.32570518    -0.12800
C1709       C  0.59960805  0.05960981  0.43477988    -0.11300
C1710       C  0.59092261  0.08208003  0.43428263    -0.12800
C1711       C  0.57985628  0.31297343  0.41761676    -0.11300
C1712       C  0.57678070  0.28343562  0.41737578    -0.12800
C1713       C  0.72998022  0.30591529  0.41980217    -0.11300
C1714       C  0.70027926  0.28007372  0.42062612    -0.12800
C1715       C  0.93232642  0.01737013  0.43206637    -0.11300
C1716       C  0.95404143  0.04877953  0.43230331    -0.12800
C1717       C  0.92350715  0.08992168  0.67641903    -0.11300
C1718       C  0.92181973  0.09010482  0.65753158    -0.12800
C1719       C  0.93194183  0.23731686  0.58239274    -0.11300
C1720       C  0.93448500  0.21059401  0.58278176    -0.12800
C1721       C  0.91977146  0.49575693  0.56799882    -0.11300
C1722       C  0.91147667  0.46472568  0.56724107    -0.12800
C1723       C  0.81005310  0.08344668  0.58184604    -0.11300
C1724       C  0.78050913  0.08018204  0.58252275    -0.12800
C1725       C  0.57939732  0.09349954  0.56746556    -0.11300
C1726       C  0.55634866  0.10140160  0.56691404    -0.12800
C1727       C  0.99424147  0.14806417  0.50672190    -0.11300
C1728       C  0.51429795  0.16103070  0.49373939    -0.12800
O1729       O  0.92978585  0.56724229  0.62797369    -0.78900
O1730       O  0.96699433  0.60821231  0.53444375    -0.63600
O1731       O  0.96098859  0.61099985  0.59349568    -1.10200
C1732       C  0.84379702  0.59024753  0.57809046     1.08000
O1733       O  0.94487327  0.64392490  0.52966987    -0.76800
O1734       O  0.91321942  0.66172657  0.56024727    -0.64400
Ni1735     Ni  0.96917130  0.57888730  0.60990809     1.34900
C1736       C  0.92527240  0.67304834  0.57835314     0.86700
O1737       O  0.50853245  0.61305613  0.56220622    -0.77300
O1738       O  0.50818285  0.58696611  0.59262240    -0.87600
C1739       C  0.96630846  0.63304166  0.52453993     0.86300
O1740       O  0.93861607  0.53703784  0.59452322    -0.65800
O1741       O  0.85385873  0.59647369  0.55898533    -0.85100
C1742       C  0.93559474  0.53202174  0.57502851     0.87100
C1743       C  0.52228601  0.60119898  0.57522474     1.08700
H1744       H  0.90053287  0.57175281  0.56207530     0.40500
O1745       O  0.91566833  0.59703343  0.56460297    -1.07700
O1746       O  0.93029294  0.65452971  0.59210493    -0.64400
Ni1747     Ni  0.91334138  0.60339537  0.59398005     1.26300
O1748       O  0.94757241  0.55728917  0.56185038    -0.64600
O1749       O  0.86447304  0.59367302  0.59332342    -0.76900
C1750       C  0.92198611  0.58922262  0.63576156     0.86500
O1751       O  0.91459239  0.60853133  0.62407703    -0.64100
Ni1752     Ni  0.89984323  0.61914102  0.54514558     1.27400
Ni1753     Ni  0.96424022  0.60791529  0.56396460     1.26100
H1754       H  0.97759962  0.63509454  0.59788455     0.41100
O1755       O  0.56397286  0.63791880  0.36967401    -0.78900
O1756       O  0.54037815  0.64508216  0.46691723    -0.63600
O1757       O  0.54407879  0.65414134  0.40775069    -1.10200
C1758       C  0.66230116  0.74996736  0.42297906     1.08000
O1759       O  0.56000478  0.70246894  0.47140569    -0.76800
O1760       O  0.59061300  0.75173309  0.44033424    -0.64400
Ni1761     Ni  0.53330398  0.61196197  0.39219892     1.34900
C1762       C  0.58139817  0.75215362  0.42163985     0.86700
O1763       O  0.49331398  0.61020533  0.43754636    -0.77300
O1764       O  0.49905630  0.57909096  0.41181634    -0.87600
C1765       C  0.53967612  0.66994757  0.47676364     0.86300
O1766       O  0.57076266  0.60791836  0.40491065    -0.65800
O1767       O  0.65128617  0.74815130  0.44178911    -0.85100
C1768       C  0.57330901  0.60370130  0.42426615     0.87100
C1769       C  0.98359583  0.58203132  0.42695077     1.08700
H1770       H  0.60535592  0.67556132  0.43959958     0.40500
O1771       O  0.59019868  0.68543064  0.43658746    -1.07700
O1772       O  0.57841553  0.72933424  0.40781022    -0.64400
Ni1773     Ni  0.59298018  0.69298285  0.40715958     1.26300
O1774       O  0.55899435  0.61373568  0.43812362    -0.64600
O1775       O  0.64244773  0.73073961  0.40795793    -0.76900
C1776       C  0.58294957  0.67017435  0.36430219     0.86500
O1777       O  0.59403400  0.69634639  0.37703624    -0.64100
Ni1778     Ni  0.60517652  0.72379150  0.45573250     1.27400
Ni1779     Ni  0.54190330  0.64789515  0.43740401     1.26100
H1780       H  0.52804456  0.66248615  0.40354540     0.41100
O1781       O  0.57893403  0.95014663  0.36957697    -0.78900
O1782       O  0.60530825  0.96926938  0.46754438    -0.63600
O1783       O  0.61242969  0.96742261  0.40836371    -1.10200
C1784       C  0.58900966  0.84833380  0.42227272     1.08000
O1785       O  0.64213822  0.94852482  0.47215232    -0.76800
O1786       O  0.66141110  0.91897664  0.44089281    -0.64400
Ni1787     Ni  0.58182667  0.97904083  0.39269848     1.34900
C1788       C  0.67169834  0.92895574  0.42236846     0.86700
O1789       O  0.61657228  0.51834457  0.43615097    -0.77300
O1790       O  0.58310420  0.51356166  0.40861290    -0.87600
C1791       C  0.63047740  0.96928528  0.47749947     0.86300
O1792       O  0.54000495  0.94051145  0.40454507    -0.65800
O1793       O  0.59712191  0.85848577  0.44129698    -0.85100
C1794       C  0.53238026  0.93726334  0.42381903     0.87100
C1795       C  0.60033229  0.52972937  0.42485701     1.08700
H1796       H  0.57103360  0.90506712  0.43939797     0.40500
O1797       O  0.59622629  0.92019983  0.43670009    -1.07700
O1798       O  0.65256664  0.93272203  0.40844381    -0.64400
Ni1799     Ni  0.60188394  0.91835424  0.40727633     1.26300
O1800       O  0.55609887  0.95158383  0.43804461    -0.64600
O1801       O  0.59010036  0.86880816  0.40750216    -0.76900
C1802       C  0.59142035  0.93043403  0.36429781     0.86500
O1803       O  0.60520395  0.91820161  0.37717188    -0.64100
Ni1804     Ni  0.61848541  0.90402950  0.45587292     1.27400
Ni1805     Ni  0.60738141  0.96864849  0.43798629     1.26100
H1806       H  0.63693960  0.98341193  0.40447939     0.41100
O1807       O  0.63925940  0.58188517  0.62668325    -0.78900
O1808       O  0.64030944  0.54545910  0.53366777    -0.63600
O1809       O  0.65091894  0.54951354  0.59264562    -1.10200
C1810       C  0.74955425  0.66552602  0.57738943     1.08000
O1811       O  0.69761716  0.56413444  0.52872089    -0.76800
O1812       O  0.74827050  0.59355444  0.55924431    -0.64400
Ni1813     Ni  0.61148810  0.54021337  0.61029076     1.34900
C1814       C  0.74814350  0.58298785  0.57768973     0.86700
O1815       O  0.60275717  0.49966668  0.56360137    -0.77300
O1816       O  0.57957484  0.49767162  0.59530757    -0.87600
C1817       C  0.66489182  0.54458326  0.52350921     0.86300
O1818       O  0.59527314  0.56716533  0.59535960    -0.65800
O1819       O  0.74622621  0.65500863  0.55837520    -0.85100
C1820       C  0.59624849  0.57492138  0.57628245     0.87100
C1821       C  0.58106140  0.98776679  0.57525717     1.08700
H1822       H  0.67413396  0.61102976  0.56141860     0.40500
O1823       O  0.68300755  0.59488827  0.56391743    -1.07700
O1824       O  0.72540176  0.57960639  0.59160167    -0.64400
Ni1825     Ni  0.69158290  0.59699298  0.59321129     1.26300
O1826       O  0.61215151  0.56702933  0.56246261    -0.64600
O1827       O  0.73117215  0.64548795  0.59255950    -0.76900
C1828       C  0.66900015  0.59017641  0.63466511     0.86500
O1829       O  0.69549825  0.59622139  0.62320185    -0.64100
Ni1830     Ni  0.72056668  0.60911918  0.54437926     1.27400
Ni1831     Ni  0.64343991  0.54719797  0.56322005     1.26100
H1832       H  0.65855402  0.53268675  0.59628893     0.41100
O1833       O  0.86982700  0.94666363  0.37501671    -0.78900
O1834       O  0.86604771  0.90618685  0.46733467    -0.63600
O1835       O  0.85690745  0.90109641  0.40828370    -1.10200
C1836       C  0.75909687  0.91984502  0.42287883     1.08000
O1837       O  0.80850808  0.86830697  0.47192662    -0.76800
O1838       O  0.75865647  0.84848075  0.44111685    -0.64400
Ni1839     Ni  0.89687755  0.93153631  0.39108377     1.34900
C1840       C  0.75884376  0.83786963  0.42272870     0.86700
O1841       O  0.90380365  0.89815540  0.43757040    -0.77300
O1842       O  0.92768732  0.91947445  0.40596438    -0.87600
C1843       C  0.84108764  0.88064152  0.47721731     0.86300
O1844       O  0.91391614  0.97436874  0.40661090    -0.65800
O1845       O  0.76205858  0.91259405  0.44195384    -0.85100
C1846       C  0.91244037  0.98068357  0.42572727     0.87100
C1847       C  0.92837911  0.90751410  0.42398272     1.08700
H1848       H  0.83376012  0.93943508  0.43935645     0.40500
O1849       O  0.82453785  0.91432422  0.43679888    -1.07700
O1850       O  0.78199344  0.85699425  0.40886279    -0.64400
Ni1851     Ni  0.81655757  0.90829570  0.40738785     1.26300
O1852       O  0.89546009  0.95654335  0.43919041    -0.64600
O1853       O  0.77738204  0.91775289  0.40779329    -0.76900
C1854       C  0.84092929  0.92510718  0.36621671     0.86500
O1855       O  0.81370202  0.90428436  0.37717455    -0.64100
Ni1856     Ni  0.78667585  0.89141924  0.45615642     1.27400
Ni1857     Ni  0.86360308  0.90553387  0.43777081     1.26100
H1858       H  0.84919567  0.87670242  0.40445388     0.41100
O1859       O  0.94157096  0.87286984  0.62860214    -0.78900
O1860       O  0.90439978  0.86843280  0.53343477    -0.63600
O1861       O  0.90006063  0.85969031  0.59258700    -1.10200
C1862       C  0.91999225  0.76257872  0.57762235     1.08000
O1863       O  0.86761683  0.81077612  0.52878846    -0.76800
O1864       O  0.84937055  0.76090949  0.55947388    -0.64400
Ni1865     Ni  0.93263290  0.90026079  0.60873116     1.34900
C1866       C  0.83802678  0.76153544  0.57759221     0.86700
O1867       O  0.89426729  0.90457662  0.56324066    -0.77300
O1868       O  0.92737329  0.93316543  0.59112631    -0.87600
C1869       C  0.87924675  0.84322003  0.52351183     0.86300
O1870       O  0.97404888  0.90781718  0.59420885    -0.65800
O1871       O  0.91428267  0.76654320  0.55842822    -0.85100
C1872       C  0.97964037  0.91118437  0.57477296     0.87100
C1873       C  0.91025690  0.93199837  0.57478066     1.08700
H1874       H  0.93947294  0.83793566  0.56147349     0.40500
O1875       O  0.91419432  0.82802820  0.56389356    -1.07700
O1876       O  0.85630903  0.78535674  0.59128118    -0.64400
Ni1877     Ni  0.90745266  0.81951424  0.59323584     1.26300
O1878       O  0.95468785  0.89972227  0.56137464    -0.64600
O1879       O  0.91670721  0.78011489  0.59273817    -0.76900
C1880       C  0.92109493  0.84181298  0.63543755     0.86500
O1881       O  0.90227293  0.81560408  0.62328356    -0.64100
Ni1882     Ni  0.89201497  0.79013616  0.54441102     1.27400
Ni1883     Ni  0.90383357  0.86595383  0.56297909     1.26100
H1884       H  0.87597337  0.85244029  0.59686886     0.41100
O1885       O  0.54088267  0.78015083  0.03803724    -0.78900
O1886       O  0.53831145  0.74259645  0.13303676    -0.63600
O1887       O  0.52878278  0.73893475  0.07393891    -1.10200
C1888       C  0.93359688  0.75781610  0.08998689     1.08000
O1889       O  0.98121023  0.70381728  0.13834797    -0.76800
O1890       O  0.93094487  0.68467587  0.10779812    -0.64400
Ni1891     Ni  0.56905855  0.77183636  0.05771377     1.34900
C1892       C  0.93040048  0.67422958  0.08926501     0.86700
O1893       O  0.57420417  0.73297650  0.10272111    -0.77300
O1894       O  0.60266177  0.76703402  0.07511005    -0.87600
C1895       C  0.51289721  0.71767362  0.14301851     0.86300
O1896       O  0.57609973  0.81296390  0.07239075    -0.65800
O1897       O  0.93598218  0.74959423  0.10890984    -0.85100
C1898       C  0.57997789  0.81845074  0.09183031     0.87100
C1899       C  0.60163277  0.74936298  0.09119383     1.08700
H1900       H  0.50764714  0.77831754  0.10525545     0.40500
O1901       O  0.99792321  0.75005312  0.10329910    -1.07700
O1902       O  0.95325146  0.69335481  0.07532068    -0.64400
Ni1903     Ni  0.98953796  0.74405374  0.07404315     1.26300
O1904       O  0.56931714  0.79340372  0.10513445    -0.64600
O1905       O  0.95204059  0.75605631  0.07487442    -0.76900
C1906       C  0.50978696  0.75919968  0.03136167     0.86500
O1907       O  0.98512324  0.74060414  0.04408634    -0.64100
Ni1908     Ni  0.95998088  0.72760869  0.12277101     1.27400
Ni1909     Ni  0.53552118  0.74252629  0.10347854     1.26100
H1910       H  0.52162075  0.71491536  0.06953968     0.41100
O1911       O  0.61208677  0.70885702  0.29410463    -0.78900
O1912       O  0.57391881  0.70319933  0.19925514    -0.63600
O1913       O  0.56980652  0.69503010  0.25836554    -1.10200
C1914       C  0.58922995  0.59763257  0.24344636     1.08000
O1915       O  0.53613836  0.64573686  0.19485909    -0.76800
O1916       O  0.51745544  0.59620418  0.22581345    -0.64400
Ni1917     Ni  0.60226692  0.73592357  0.27438802     1.34900
C1918       C  0.50678186  0.59719520  0.24407568     0.86700
O1919       O  0.56382911  0.73953638  0.22876678    -0.77300
O1920       O  0.59618949  0.76847476  0.25680160    -0.87600
C1921       C  0.54849386  0.67821794  0.18940976     0.86300
O1922       O  0.64388719  0.74440074  0.25973307    -0.65800
O1923       O  0.58212468  0.60070775  0.22438375    -0.85100
C1924       C  0.64921267  0.74683015  0.24026547     0.87100
C1925       C  0.57945175  0.76707600  0.24021099     1.08700
H1926       H  0.60849134  0.67247147  0.22702154     0.40500
O1927       O  0.58331526  0.66281428  0.22968941    -1.07700
O1928       O  0.52598730  0.62074878  0.25767642    -0.64400
Ni1929     Ni  0.57725776  0.65486884  0.25908027     1.26300
O1930       O  0.62411778  0.73444113  0.22695747    -0.64600
O1931       O  0.58669277  0.61559534  0.25858073    -0.76900
C1932       C  0.59175488  0.67788571  0.30112100     0.86500
O1933       O  0.57282055  0.65147854  0.28913003    -0.64100
Ni1934     Ni  0.56009296  0.62460170  0.21046222     1.27400
Ni1935     Ni  0.57329137  0.70090333  0.22873961     1.26100
H1936       H  0.54572361  0.68773321  0.26267510     0.41100
O1937       O  0.80581374  0.90088521  0.29724441    -0.78900
O1938       O  0.81210177  0.88159909  0.19929355    -0.63600
O1939       O  0.82110285  0.88244552  0.25846616    -1.10200
C1940       C  0.91789443  0.50259035  0.24471084     1.08000
O1941       O  0.86973491  0.90262082  0.19462659    -0.76800
O1942       O  0.91913481  0.93279745  0.22554205    -0.64400
Ni1943     Ni  0.77940230  0.87135082  0.27443035     1.34900
C1944       C  0.91849189  0.92033591  0.24352047     0.86700
O1945       O  0.77707417  0.83313614  0.22825653    -0.77300
O1946       O  0.74627463  0.83813011  0.25451044    -0.87600
C1947       C  0.83732587  0.88176696  0.18928126     0.86300
O1948       O  0.77610163  0.90974483  0.26263116    -0.65800
O1949       O  0.91347419  0.99226535  0.22554297    -0.85100
C1950       C  0.77153442  0.91307448  0.24343890     0.87100
C1951       C  0.74860881  0.82181142  0.23871533     1.08700
H1952       H  0.84201884  0.94534190  0.22823999     0.40500
O1953       O  0.85210284  0.93013491  0.23043068    -1.07700
O1954       O  0.89519149  0.91516154  0.25747496    -0.64400
Ni1955     Ni  0.86026360  0.93101200  0.25974735     1.26300
O1956       O  0.78059786  0.89876195  0.22906534    -0.64600
O1957       O  0.89894321  0.98027215  0.25968887    -0.76900
C1958       C  0.83814955  0.91871467  0.30269815     0.86500
O1959       O  0.86423026  0.92992892  0.28985097    -0.64100
Ni1960     Ni  0.89011461  0.94696487  0.21092973     1.27400
Ni1961     Ni  0.81476487  0.88176675  0.22887968     1.26100
H1962       H  0.82919710  0.86596664  0.26215635     0.41100
O1963       O  0.74127502  0.77190435  0.03917232    -0.78900
O1964       O  0.77511725  0.80313398  0.13365074    -0.63600
O1965       O  0.78311535  0.80116887  0.07466993    -1.10200
C1966       C  0.76368832  0.68417182  0.08911885     1.08000
O1967       O  0.81412866  0.78514189  0.13827588    -0.76800
O1968       O  0.83441427  0.75459147  0.10785588    -0.64400
Ni1969     Ni  0.75310011  0.81114437  0.05738243     1.34900
C1970       C  0.84571335  0.76613365  0.08967064     0.86700
O1971       O  0.78571603  0.85018516  0.10450756    -0.77300
O1972       O  0.76144993  0.85161629  0.07386952    -0.87600
C1973       C  0.80112091  0.80483213  0.14352975     0.86300
O1974       O  0.70951113  0.78143419  0.07143968    -0.65800
O1975       O  0.77007113  0.69412501  0.10829035    -0.85100
C1976       C  0.70242341  0.77498261  0.09060895     0.87100
C1977       C  0.77449464  0.86463582  0.09165233     1.08700
H1978       H  0.74315351  0.73870306  0.10513970     0.40500
O1979       O  0.76841994  0.75470303  0.10290418    -1.07700
O1980       O  0.82715381  0.77077745  0.07577116    -0.64400
Ni1981     Ni  0.77594847  0.75361372  0.07364245     1.26300
O1982       O  0.72617123  0.78388168  0.10462143    -0.64600
O1983       O  0.76666741  0.70489582  0.07399322    -0.76900
C1984       C  0.76226317  0.76245792  0.03176047     0.86500
O1985       O  0.78163709  0.75541633  0.04360905    -0.64100
Ni1986     Ni  0.79113854  0.73995055  0.12253086     1.27400
Ni1987     Ni  0.77733537  0.80243149  0.10415212     1.26100
H1988       H  0.80761191  0.81804064  0.07119136     0.41100
O1989       O  0.74726386  0.97620599  0.04058199    -0.78900
O1990       O  0.71821771  0.98232128  0.13507180    -0.63600
O1991       O  0.71806903  0.98924067  0.07592002    -1.10200
C1992       C  0.83418813  0.58539434  0.08903403     1.08000
O1993       O  0.73295914  0.53641071  0.13805590    -0.76800
O1994       O  0.76334209  0.58635200  0.10722057    -0.64400
Ni1995     Ni  0.70831165  0.94896935  0.05901955     1.34900
C1996       C  0.75357584  0.58692193  0.08867144     0.86700
O1997       O  0.67025906  0.94352679  0.10644458    -0.77300
O1998       O  0.66818394  0.91734247  0.07580679    -0.87600
C1999       C  0.71754733  0.00746472  0.14467640     0.86300
O2000       O  0.73860143  0.93619957  0.07326749    -0.65800
O2001       O  0.82368395  0.58260905  0.10802227    -0.85100
C2002       C  0.74614463  0.93687519  0.09235250     0.87100
C2003       C  0.65537749  0.91774679  0.09359271     1.08700
H2004       H  0.77803317  0.51034040  0.10533567     0.40500
O2005       O  0.76262289  0.52005785  0.10269423    -1.07700
O2006       O  0.74965930  0.56396681  0.07470233    -0.64400
Ni2007     Ni  0.76474730  0.52813648  0.07329520     1.26300
O2008       O  0.73721346  0.95174110  0.10631319    -0.64600
O2009       O  0.81405936  0.56659180  0.07394989    -0.76900
C2010       C  0.75387576  0.50588483  0.03018940     0.86500
O2011       O  0.76498647  0.53193459  0.04307340    -0.64100
Ni2012     Ni  0.77787862  0.55798528  0.12217383     1.27400
Ni2013     Ni  0.71789682  0.98356923  0.10547796     1.26100
H2014       H  0.69966730  0.49683526  0.07016070     0.41100
O2015       O  0.59923335  0.90082684  0.29330093    -0.78900
O2016       O  0.64004969  0.94433656  0.20033887    -0.63600
O2017       O  0.63209346  0.94595149  0.25938062    -1.10200
C2018       C  0.51671589  0.92875579  0.24251000     1.08000
O2019       O  0.62102226  0.98265599  0.19584243    -0.76800
O2020       O  0.58907951  0.00075774  0.22647967    -0.62600
Ni2021     Ni  0.63992890  0.91381432  0.27605677     1.34900
C2022       C  0.59712034  0.50979535  0.24332881     0.86700
O2023       O  0.68413601  0.95198229  0.23088311    -0.77300
O2024       O  0.68167910  0.92321698  0.26050067    -0.87600
C2025       C  0.64126461  0.97028800  0.19063953     0.86300
O2026       O  0.61077162  0.87223103  0.26028777    -0.65800
O2027       O  0.52813201  0.93686363  0.22367900    -0.85100
C2028       C  0.60660534  0.86723220  0.24084523     0.87100
C2029       C  0.69696455  0.93887322  0.24362425     1.08700
H2030       H  0.57265050  0.90921995  0.22671871     0.40500
O2031       O  0.58831590  0.93419472  0.22985427    -1.07700
O2032       O  0.60223236  0.99020276  0.25862939    -0.64400
Ni2033     Ni  0.58462390  0.93890203  0.25926716     1.26300
O2034       O  0.61795905  0.89242872  0.22760530    -0.64600
O2035       O  0.53615803  0.92998424  0.25791111    -0.76900
C2036       C  0.59024621  0.92196611  0.30100916     0.86500
O2037       O  0.58396992  0.94208437  0.28936445    -0.64100
Ni2038     Ni  0.57497232  0.95872108  0.21059654     1.27400
Ni2039     Ni  0.63629809  0.94342357  0.22984121     1.26100
H2040       H  0.64866938  0.96997405  0.26389747     0.41100
O2041       O  0.91277976  0.80882922  0.70711716    -0.78900
O2042       O  0.88136976  0.81361888  0.80108385    -0.63600
O2043       O  0.88296853  0.82219653  0.74196607    -1.10200
C2044       C  0.99950746  0.92081699  0.75588431     1.08000
O2045       O  0.89862303  0.87063482  0.80513631    -0.76800
O2046       O  0.92787520  0.92038077  0.77412824    -0.64400
Ni2047     Ni  0.87257356  0.78195398  0.72477466     1.34900
C2048       C  0.91677010  0.91959575  0.75575854     0.86700
O2049       O  0.83430408  0.77565063  0.77206241    -0.77300
O2050       O  0.83113225  0.75073804  0.74082762    -0.87600
C2051       C  0.87956352  0.83805746  0.81078508     0.86300
O2052       O  0.90102067  0.76702530  0.73929613    -0.65800
O2053       O  0.98925243  0.91819029  0.77493959    -0.85100
C2054       C  0.90956056  0.76848998  0.75827386     0.87100
C2055       C  0.81866401  0.75067736  0.75880468     1.08700
H2056       H  0.94568964  0.84642771  0.77259234     0.40500
O2057       O  0.92939533  0.85512625  0.77006818    -1.07700
O2058       O  0.91319170  0.89653015  0.74204165    -0.64400
Ni2059     Ni  0.93050257  0.86265523  0.74066044     1.26300
O2060       O  0.90171717  0.78434006  0.77218967    -0.64600
O2061       O  0.97915609  0.90217170  0.74084096    -0.76900
C2062       C  0.92127680  0.83859445  0.69907962     0.86500
O2063       O  0.92864882  0.86554852  0.71053085    -0.64100
Ni2064     Ni  0.94359879  0.89313503  0.78926528     1.27400
Ni2065     Ni  0.88189453  0.81577083  0.77151343     1.26100
H2066       H  0.86606593  0.82981732  0.73846600     0.41100
O2067       O  0.76603979  0.73549072  0.96001343    -0.78900
O2068       O  0.80175368  0.77294759  0.86667897    -0.63600
O2069       O  0.79833559  0.77879102  0.92577282    -1.10200
C2070       C  0.68236984  0.76137474  0.91103490     1.08000
O2071       O  0.78339144  0.81181852  0.86230174    -0.76800
O2072       O  0.75273072  0.83175886  0.89271820    -0.64400
Ni2073     Ni  0.80663454  0.74753074  0.94296499     1.34900
C2074       C  0.76451716  0.84294626  0.91087904     0.86700
O2075       O  0.84744088  0.78069323  0.89637662    -0.77300
O2076       O  0.84798810  0.75620338  0.92719732    -0.87600
C2077       C  0.80314687  0.79898254  0.85691916     0.86300
O2078       O  0.77743699  0.70476270  0.92817116    -0.65800
O2079       O  0.69231274  0.76755983  0.89187718    -0.85100
C2080       C  0.77089344  0.69836773  0.90897116     0.87100
C2081       C  0.86147406  0.76927963  0.90946171     1.08700
H2082       H  0.73634656  0.74059522  0.89504169     0.40500
O2083       O  0.75262710  0.76574650  0.89735606    -1.07700
O2084       O  0.76926019  0.82425226  0.92466019    -0.64400
Ni2085     Ni  0.75126290  0.77284822  0.92665421     1.26300
O2086       O  0.78034125  0.72253158  0.89519401    -0.64600
O2087       O  0.70296650  0.76444921  0.92622477    -0.76900
C2088       C  0.75947481  0.75806300  0.96815582     0.86500
O2089       O  0.75306367  0.77830614  0.95671560    -0.64100
Ni2090     Ni  0.73816220  0.78873778  0.87781746     1.27400
Ni2091     Ni  0.80014432  0.77379422  0.89628634     1.26100
H2092       H  0.81557344  0.80304411  0.92953535     0.41100
O2093       O  0.70796740  0.60868947  0.70351877    -0.78900
O2094       O  0.70154350  0.57595253  0.80044165    -0.63600
O2095       O  0.69374558  0.57165094  0.74121840    -1.10200
C2096       C  0.59653208  0.59164783  0.75579528     1.08000
O2097       O  0.64390578  0.53840317  0.80451124    -0.76800
O2098       O  0.59448343  0.52074868  0.77365207    -0.64400
Ni2099     Ni  0.73499464  0.60467224  0.72573417     1.34900
C2100       C  0.59565628  0.50970620  0.75554212     0.86700
O2101       O  0.73801086  0.56590624  0.77073618    -0.77300
O2102       O  0.76847951  0.60390910  0.74516579    -0.87600
C2103       C  0.67630174  0.55003731  0.80995500     0.86300
O2104       O  0.73696623  0.64485629  0.73895561    -0.65800
O2105       O  0.59998121  0.58555803  0.77500408    -0.85100
C2106       C  0.74206112  0.65142301  0.75827920     0.87100
C2107       C  0.76646747  0.58434437  0.76043666     1.08700
H2108       H  0.67121987  0.61087358  0.77234028     0.40500
O2109       O  0.66158226  0.58570751  0.76979028    -1.07700
O2110       O  0.61965252  0.52828196  0.74203862    -0.64400
Ni2111     Ni  0.65369262  0.57937793  0.74045667     1.26300
O2112       O  0.73309046  0.62695740  0.77193933    -0.64600
O2113       O  0.61440963  0.58865581  0.74080871    -0.76900
C2114       C  0.67567831  0.59148857  0.69787234     0.86500
O2115       O  0.64976335  0.57477312  0.71053919    -0.64100
Ni2116     Ni  0.62337846  0.56307475  0.78902152     1.27400
Ni2117     Ni  0.69954979  0.57560489  0.77083538     1.26100
H2118       H  0.68658888  0.54758623  0.73690332     0.41100
O2119       O  0.78374760  0.53957733  0.95827014    -0.78900
O2120       O  0.73870009  0.53521588  0.86553528    -0.63600
O2121       O  0.73797184  0.52688792  0.92465384    -1.10200
C2122       C  0.75748052  0.93170891  0.91065672     1.08000
O2123       O  0.70560414  0.98168324  0.86254919    -0.76800
O2124       O  0.68660123  0.93081971  0.89261939    -0.64400
Ni2125     Ni  0.77123803  0.56726672  0.94070083     1.34900
C2126       C  0.67516043  0.93079826  0.91081184     0.86700
O2127       O  0.73094006  0.57172555  0.89599219    -0.77300
O2128       O  0.76221261  0.59947177  0.92472864    -0.87600
C2129       C  0.71343890  0.51014717  0.85560329     0.86300
O2130       O  0.81216180  0.57807200  0.92458780    -0.65800
O2131       O  0.75160129  0.93615273  0.89157404    -0.85100
C2132       C  0.81635404  0.57926184  0.90505231     0.87100
C2133       C  0.74539915  0.59840633  0.90820451     1.08700
H2134       H  0.77483307  0.50402327  0.89243394     0.40500
O2135       O  0.75126438  0.99757661  0.89790259    -1.07700
O2136       O  0.69341745  0.95376057  0.92484642    -0.64400
Ni2137     Ni  0.74431302  0.98774001  0.92712855     1.26300
O2138       O  0.79059318  0.56584492  0.89221814    -0.64600
O2139       O  0.75398236  0.94865631  0.92601250    -0.76900
C2140       C  0.76186394  0.51023194  0.96655566     0.86500
O2141       O  0.73852627  0.98240106  0.95707464    -0.64100
Ni2142     Ni  0.72958987  0.96040454  0.87792718     1.27400
Ni2143     Ni  0.73989483  0.53276853  0.89506109     1.26100
H2144       H  0.71414835  0.51978874  0.92940740     0.41100
O2145       O  0.96898002  0.73236577  0.96284709    -0.78900
O2146       O  0.97964605  0.71340946  0.86548845    -0.63600
O2147       O  0.98669443  0.71442783  0.92465129    -1.10200
C2148       C  0.58704730  0.83517069  0.91039045     1.08000
O2149       O  0.53687335  0.73381071  0.86191016    -0.76800
O2150       O  0.58704896  0.76415354  0.89249512    -0.64400
Ni2151     Ni  0.94402856  0.70234337  0.93997534     1.34900
C2152       C  0.58663091  0.75335991  0.91089979     0.86700
O2153       O  0.94415350  0.66480540  0.89402195    -0.77300
O2154       O  0.91205867  0.66869855  0.91984391    -0.87600
C2155       C  0.00475477  0.71263075  0.85600091     0.86300
O2156       O  0.93993381  0.73995748  0.92784575    -0.65800
O2157       O  0.58393772  0.82483437  0.89134795    -0.85100
C2158       C  0.93623781  0.74347013  0.90857813     0.87100
C2159       C  0.91520421  0.65306060  0.90397796     1.08700
H2160       H  0.51244515  0.78075067  0.89423709     0.40500
O2161       O  0.52132557  0.76460846  0.89678041    -1.07700
O2162       O  0.56348270  0.74939864  0.92465767    -0.64400
Ni2163     Ni  0.52948846  0.76649300  0.92614695     1.26300
O2164       O  0.94691675  0.73019596  0.89443128    -0.64600
O2165       O  0.56885476  0.81501585  0.92557379    -0.76900
C2166       C  0.50633591  0.75862149  0.96770775     0.86500
O2167       O  0.53312762  0.76540657  0.95627551    -0.64100
Ni2168     Ni  0.55906800  0.77897188  0.87737663     1.27400
Ni2169     Ni  0.98143004  0.71353145  0.89497408     1.26100
H2170       H  0.49682968  0.70220057  0.92885555     0.41100
O2171       O  0.90246111  0.60096206  0.70747975    -0.78900
O2172       O  0.94028609  0.63542556  0.80107829    -0.63600
O2173       O  0.94590093  0.63191818  0.74204863    -1.10200
C2174       C  0.92408840  0.51408003  0.75653593     1.08000
O2175       O  0.97684095  0.61421074  0.80561468    -0.76800
O2176       O  0.99485899  0.58179769  0.77521267    -0.64400
Ni2177     Ni  0.91542044  0.64137309  0.72493101     1.34900
C2178       C  0.50759915  0.59738830  0.75486704     0.86700
O2179       O  0.95012497  0.68221495  0.77145771    -0.77300
O2180       O  0.92509272  0.68277181  0.74084485    -0.87600
C2181       C  0.96558544  0.63536307  0.81084337     0.86300
O2182       O  0.87236694  0.61298616  0.73982748    -0.65800
O2183       O  0.92921878  0.52340578  0.77580850    -0.85100
C2184       C  0.86617043  0.60773612  0.75915494     0.87100
C2185       C  0.93861702  0.69635665  0.75845922     1.08700
H2186       H  0.90551062  0.57032224  0.77253507     0.40500
O2187       O  0.93091270  0.58568267  0.77039270    -1.07700
O2188       O  0.98934578  0.60068875  0.74352952    -0.64400
Ni2189     Ni  0.93827109  0.58420374  0.74114626     1.26300
O2190       O  0.89043689  0.61672425  0.77279364    -0.64600
O2191       O  0.92849513  0.53535757  0.74146097    -0.76900
C2192       C  0.92393131  0.59261009  0.69952914     0.86500
O2193       O  0.94389076  0.58592196  0.71108556    -0.64100
Ni2194     Ni  0.95207341  0.56919267  0.78998466     1.27400
Ni2195     Ni  0.94119033  0.63403633  0.77153346     1.26100
H2196       H  0.97030292  0.64855671  0.73824811     0.41100
C2197       C  0.99550698  0.68591495  0.83983776    -0.11300
C2198       C  0.98332899  0.66199374  0.82702021    -0.12800
C2199       C  0.61393509  0.87167338  0.91482071    -0.11300
C2200       C  0.64024727  0.90108408  0.91541801    -0.12800
C2201       C  0.85236692  0.59907773  0.89763882    -0.11300
C2202       C  0.88342976  0.62171831  0.89728959    -0.12800
C2203       C  0.56936242  0.60070098  0.75087629    -0.11300
C2204       C  0.54260556  0.60301687  0.74992244    -0.12800
C2205       C  0.82967837  0.59264512  0.76553206    -0.11300
C2206       C  0.79883796  0.58503515  0.76601469    -0.12800
C2207       C  0.68524979  0.53215069  0.82612911    -0.11300
C2208       C  0.69651257  0.51968754  0.83913242    -0.12800
C2209       C  0.89321063  0.76856378  0.90388401    -0.11300
C2210       C  0.91591457  0.76021947  0.90323273    -0.12800
C2211       C  0.64580027  0.75161995  0.91555454    -0.11300
C2212       C  0.61624450  0.74823976  0.91603914    -0.12800
C2213       C  0.75373888  0.66156604  0.90298925    -0.11300
C2214       C  0.74526176  0.63049546  0.90301723    -0.12800
C2215       C  0.76706162  0.90457840  0.91493916    -0.11300
C2216       C  0.77004022  0.87810611  0.91562295    -0.12800
C2217       C  0.53590242  0.94863329  0.75344644    -0.11300
C2218       C  0.56543682  0.97497547  0.75255595    -0.12800
C2219       C  0.78600615  0.71905801  0.76426882    -0.11300
C2220       C  0.76252671  0.68826823  0.76420148    -0.12800
C2221       C  0.91326626  0.97787867  0.75126768    -0.11300
C2222       C  0.91065870  0.94863577  0.75064367    -0.12800
C2223       C  0.92773691  0.74957579  0.76390579    -0.11300
C2224       C  0.93763106  0.72800277  0.76391901    -0.12800
C2225       C  0.82969538  0.81569168  0.84049161    -0.11300
C2226       C  0.85314872  0.82779198  0.82732567    -0.12800
C2227       C  0.76065456  0.51116343  0.00801774    -0.11300
C2228       C  0.76116371  0.50901123  0.98913604    -0.12800
C2229       C  0.66795890  0.98708238  0.17434251    -0.11300
C2230       C  0.69143738  0.99838668  0.16122549    -0.12800
C2231       C  0.76223370  0.75935270  0.00939999    -0.11300
C2232       C  0.75974996  0.75962286  0.99060288    -0.12800
C2233       C  0.77357595  0.89606294  0.09754359    -0.11300
C2234       C  0.76412815  0.91790617  0.09798894    -0.12800
C2235       C  0.75369690  0.64740376  0.08449618    -0.11300
C2236       C  0.74968648  0.61751288  0.08374567    -0.12800
C2237       C  0.94766158  0.91408170  0.24791742    -0.11300
C2238       C  0.97660288  0.91601735  0.24729574    -0.12800
C2239       C  0.72934714  0.93913666  0.23862490    -0.11300
C2240       C  0.75196026  0.93069223  0.23837769    -0.12800
C2241       C  0.82843135  0.85546848  0.17280074    -0.11300
C2242       C  0.81745895  0.83175573  0.15980211    -0.12800
C2243       C  0.60261239  0.54474823  0.24843286    -0.11300
C2244       C  0.59928590  0.57098320  0.24792960    -0.12800
C2245       C  0.58984449  0.83081035  0.23407950    -0.11300
C2246       C  0.58071604  0.79955453  0.23416165    -0.12800
C2247       C  0.97189007  0.56811934  0.24993306    -0.11300
C2248       C  0.94512208  0.53899095  0.24925479    -0.12800
C2249       C  0.68555737  0.76715220  0.23342919    -0.11300
C2250       C  0.71650087  0.79011814  0.23276549    -0.12800
C2251       C  0.50563633  0.75824466  0.00902889    -0.11300
C2252       C  0.50792023  0.75968662  0.99018034    -0.12800
C2253       C  0.66541757  0.75858775  0.09632372    -0.11300
C2254       C  0.63429729  0.75020381  0.09644445    -0.12800
C2255       C  0.88078981  0.77141734  0.08497854    -0.11300
C2256       C  0.90706718  0.76812071  0.08559448    -0.12800
C2257       C  0.60016817  0.85489243  0.09851580    -0.11300
C2258       C  0.62317614  0.88582172  0.09916012    -0.12800
C2259       C  0.87082242  0.61278649  0.08462029    -0.11300
C2260       C  0.90026197  0.63940475  0.08426403    -0.12800
C2261       C  0.52149783  0.70023519  0.15948829    -0.11300
C2262       C  0.53221912  0.68781556  0.17274523    -0.12800
C2263       C  0.92074027  0.83796846  0.65777111    -0.11300
C2264       C  0.92243379  0.84033730  0.67661232    -0.12800
C2265       C  0.84070429  0.92490223  0.34368474    -0.11300
C2266       C  0.84334726  0.92490500  0.32485206    -0.12800
C2267       C  0.85061514  0.86396155  0.49374444    -0.11300
C2268       C  0.86230201  0.85234155  0.50694913    -0.12800
C2269       C  0.67130084  0.59237183  0.65700442    -0.11300
C2270       C  0.67008382  0.59135004  0.67582087    -0.12800
C2271       C  0.51742673  0.93427575  0.57003465    -0.11300
C2272       C  0.54869186  0.95616982  0.56975161    -0.12800
C2273       C  0.80316051  0.73160664  0.58241932    -0.11300
C2274       C  0.77681661  0.70208515  0.58179812    -0.12800
C2275       C  0.58789193  0.92239304  0.32341757    -0.11300
C2276       C  0.58973470  0.92324977  0.34227092    -0.12800
C2277       C  0.99228905  0.91834510  0.42932781    -0.11300
C2278       C  0.96080480  0.90817739  0.42932075    -0.12800
C2279       C  0.70630627  0.93337457  0.41741930    -0.11300
C2280       C  0.73234302  0.92972292  0.41825402    -0.12800
C2281       C  0.64773076  0.99560611  0.49399072    -0.11300
C2282       C  0.65484459  0.51879712  0.50672031    -0.12800
C2283       C  0.59036342  0.67544141  0.34230838    -0.11300
C2284       C  0.59112357  0.67428878  0.32346374    -0.12800
C2285       C  0.59903556  0.56121834  0.43045429    -0.11300
C2286       C  0.59023817  0.58365424  0.43017440    -0.12800
C2287       C  0.57963867  0.81175669  0.41735439    -0.11300
C2288       C  0.57671489  0.78227161  0.41649819    -0.12800
C2289       C  0.72890539  0.80288902  0.41785339    -0.11300
C2290       C  0.69922040  0.77664584  0.41857067    -0.12800
C2291       C  0.93073673  0.51800744  0.43236449    -0.11300
C2292       C  0.95230192  0.54940432  0.43262748    -0.12800
C2293       C  0.92391809  0.59042892  0.67706882    -0.11300
C2294       C  0.92165359  0.59089699  0.65823837    -0.12800
C2295       C  0.92892441  0.73516460  0.58229060    -0.11300
C2296       C  0.93116440  0.70830938  0.58305264    -0.12800
C2297       C  0.92117398  0.99600634  0.56975338    -0.11300
C2298       C  0.91158067  0.96466550  0.56927108    -0.12800
C2299       C  0.80707776  0.58042356  0.58243842    -0.11300
C2300       C  0.77763763  0.57745817  0.58272198    -0.12800
C2301       C  0.57661472  0.59210734  0.57037404    -0.11300
C2302       C  0.55436864  0.60103659  0.57006924    -0.12800
C2303       C  0.99225318  0.65050908  0.50806439    -0.11300
C2304       C  0.51319875  0.66028954  0.49319070    -0.12800
loop_ 
_geom_bond_atom_site_label_1 
_geom_bond_atom_site_label_2 
_geom_bond_distance 
_geom_bond_site_symmetry_2 
_ccdc_geom_bond_type 
O1           Ni7   1.902       .  S
O1           C22   1.263       .  A
O2          Ni25   1.900       .  S
O2           C11   1.264       .  A
O3           Ni7   1.919       .  S
O3          Ni25   1.916       .  S
O3          Ni19   1.938       .  S
O3           H26   0.966       .  S
C4           O21   1.284       .  A
C4           O13   1.282       .  A
C4          C571   1.456       .  S
O5          Ni24   1.961       .  S
O5           C11   1.277       .  A
O6          Ni24   1.899       .  S
O6            C8   1.267       .  A
Ni7          O12   1.897       .  S
Ni7        O1162   1.921       .  S
C8           O18   1.282       .  A
C8          C568   1.449       .  S
O9        Ni1177   1.922   1_455  S
O9           C15   1.274       .  A
O10       Ni1159   1.916   1_455  S
O10          C15   1.272       .  A
C11         C575   1.452       .  S
O12          C14   1.267       .  A
O13         Ni24   1.939       .  S
C14          O20   1.279       .  A
C14        C1145   1.438   1_545  S
C15         C574   1.435       .  S
H16          O17   0.967       .  S
O17         Ni25   1.903       .  S
O17         Ni19   1.909       .  S
O17         Ni24   1.901       .  S
O18         Ni19   1.959       .  S
Ni19         O23   1.941       .  S
Ni19         O21   1.946       .  S
O20         Ni25   1.961       .  S
C22          O23   1.281       .  A
C22         C566   1.443       .  S
Ni25       O1161   1.917       .  S
O27         Ni33   1.901       .  S
O27          C48   1.263       .  A
O28         Ni51   1.899       .  S
O28          C37   1.263       .  A
O29         Ni33   1.919       .  S
O29         Ni51   1.917       .  S
O29         Ni45   1.935       .  S
O29          H52   0.968       .  S
C30          O47   1.282       .  A
C30          O39   1.283       .  A
C30         C562   1.454       .  S
O31         Ni50   1.966       .  S
O31          C37   1.279       .  A
O32         Ni50   1.900       .  S
O32          C34   1.267       .  A
Ni33         O36   1.918       .  S
Ni33         O38   1.900       .  S
C34          O44   1.283       .  A
C34         C560   1.451       .  S
O35         Ni51   1.914   1_655  S
O35        C1193   1.267       .  A
O36        C1193   1.266   1_455  A
C37         C576   1.456       .  S
O38          C40   1.267       .  A
O39         Ni50   1.942       .  S
C40          O46   1.277       .  A
C40         C558   1.439       .  S
C41        O1187   1.272       .  A
C41        O1188   1.273       .  A
C41         C564   1.431       .  S
H42          O43   0.965       .  S
O43         Ni51   1.902       .  S
O43         Ni45   1.906       .  S
O43         Ni50   1.897       .  S
O44         Ni45   1.960       .  S
Ni45         O49   1.934       .  S
Ni45         O47   1.940       .  S
O46         Ni51   1.956       .  S
C48          O49   1.278       .  A
C48         C555   1.438       .  S
O53         Ni59   1.898       .  S
O53          C74   1.263       .  A
O54         Ni77   1.896       .  S
O54          C63   1.263       .  A
O55         Ni59   1.919       .  S
O55         Ni77   1.913       .  S
O55         Ni71   1.938       .  S
O55          H78   0.965       .  S
C56          O73   1.282       .  A
C56          O65   1.284       .  A
C56         C559   1.454       .  S
O57         Ni76   1.965       .  S
O57          C63   1.278       .  A
O58         Ni76   1.897       .  S
O58          C60   1.266       .  A
Ni59         O64   1.901       .  S
Ni59        O638   1.921       .  S
C60          O70   1.282       .  A
C60         C551   1.450       .  S
O61        Ni653   1.925   1_545  S
O61          C67   1.275       .  A
O62        Ni635   1.917   1_545  S
O62          C67   1.273       .  A
C63         C553   1.453       .  S
O64          C66   1.268       .  A
O65         Ni76   1.944       .  S
C66          O72   1.280       .  A
C66        C1701   1.441   1_455  S
C67         C557   1.438       .  S
H68          O69   0.966       .  S
O69         Ni77   1.900       .  S
O69         Ni71   1.907       .  S
O69         Ni76   1.900       .  S
O70         Ni71   1.960       .  S
Ni71         O75   1.939       .  S
Ni71         O73   1.939       .  S
O72         Ni77   1.964       .  S
C74          O75   1.280       .  A
C74         C548   1.440       .  S
Ni77        O637   1.913       .  S
O79         Ni85   1.895       .  S
O79         C100   1.261       .  A
O80        Ni103   1.896       .  S
O80          C89   1.262       .  A
O81         Ni85   1.921       .  S
O81        Ni103   1.913       .  S
O81         Ni97   1.933       .  S
O81         H104   0.968       .  S
C82          O99   1.280       .  A
C82          O91   1.283       .  A
C82         C546   1.453       .  S
O83        Ni102   1.965       .  S
O83          C89   1.278       .  A
O84        Ni102   1.901       .  S
O84          C86   1.267       .  A
Ni85         O88   1.920       .  S
Ni85         O90   1.897       .  S
C86          O96   1.283       .  A
C86         C572   1.453       .  S
O87        Ni103   1.913   1_565  S
O87         C669   1.265       .  A
O88         C669   1.266   1_545  A
C89         C554   1.453       .  S
O90          C92   1.265       .  A
O91        Ni102   1.943       .  S
C92          O98   1.277       .  A
C92         C573   1.437       .  S
C93         O663   1.272       .  A
C93         O664   1.272       .  A
C93         C544   1.436       .  S
H94          O95   0.965       .  S
O95        Ni103   1.903       .  S
O95         Ni97   1.910       .  S
O95        Ni102   1.902       .  S
O96         Ni97   1.962       .  S
Ni97        O101   1.933       .  S
Ni97         O99   1.935       .  S
O98        Ni103   1.957       .  S
C100        O101   1.278       .  A
C100        C541   1.433       .  S
O105       Ni111   1.903       .  S
O105        C126   1.258       .  A
O106       Ni129   1.899       .  S
O106        C115   1.263       .  A
O107       Ni111   1.916       .  S
O107       Ni129   1.910       .  S
O107       Ni123   1.922       .  S
O107        H130   0.967       .  S
C108        O125   1.282       .  A
C108        O117   1.284       .  A
C108        C552   1.454       .  S
O109       Ni128   1.967       .  S
O109        C115   1.279       .  A
O110       Ni128   1.900       .  S
O110        C112   1.267       .  A
Ni111       O114   1.919       .  S
Ni111       O116   1.891       .  S
C112        O122   1.283       .  A
C112        C561   1.450       .  S
O113       Ni129   1.920       .  S
O113        C119   1.273       .  A
O114        C119   1.272       .  A
C115        C539   1.455       .  S
O116        C118   1.261       .  A
O117       Ni128   1.945       .  S
C118        O124   1.269       .  A
C118       C1139   1.432       .  S
C119        C550   1.435       .  S
H120        O121   0.966       .  S
O121       Ni129   1.914       .  S
O121       Ni123   1.914       .  S
O121       Ni128   1.896       .  S
O122       Ni123   1.958       .  S
Ni123       O127   1.942       .  S
Ni123       O125   1.938       .  S
O124       Ni129   1.939       .  S
C126        O127   1.277       .  A
C126        C537   1.441       .  S
O131       Ni137   1.901       .  S
O131        C152   1.264       .  A
O132       Ni155   1.898       .  S
O132        C141   1.262       .  A
O133       Ni137   1.919       .  S
O133       Ni155   1.914       .  S
O133       Ni149   1.935       .  S
O133        H156   0.966       .  S
C134        O151   1.281       .  A
C134        O143   1.283       .  A
C134        C567   1.453       .  S
O135       Ni154   1.965       .  S
O135        C141   1.277       .  A
O136       Ni154   1.897       .  S
O136        C138   1.266       .  A
Ni137       O140   1.923       .  S
Ni137       O142   1.900       .  S
C138        O148   1.282       .  A
C138        C545   1.449       .  S
O139       Ni155   1.912       .  S
O139        C145   1.264       .  A
O140        C145   1.267       .  A
C141        C540   1.455       .  S
O142        C144   1.267       .  A
O143       Ni154   1.941       .  S
C144        O150   1.279       .  A
C144       C1695   1.440       .  S
C145        C570   1.433       .  S
H146        O147   0.967       .  S
O147       Ni155   1.902       .  S
O147       Ni149   1.911       .  S
O147       Ni154   1.901       .  S
O148       Ni149   1.959       .  S
Ni149       O153   1.936       .  S
Ni149       O151   1.938       .  S
O150       Ni155   1.961       .  S
C152        O153   1.279       .  A
C152        C535   1.439       .  S
O157       Ni163   1.911       .  S
O157        C178   1.263       .  A
O158       Ni181   1.901       .  S
O158        C167   1.265       .  A
O159       Ni163   1.913       .  S
O159       Ni181   1.912       .  S
O159      Ni1327   1.923   1_455  S
O159        H182   0.967       .  S
C160        O177   1.283       .  A
C160        O169   1.284       .  A
C160        C528   1.456       .  S
O161       Ni180   1.966       .  S
O161       C1319   1.278       .  A
O162       Ni180   1.895       .  S
O162        C164   1.266       .  A
Ni163       O166   1.926       .  S
Ni163       O168   1.895       .  S
C164        O174   1.282       .  A
C164        C532   1.445       .  S
O165       Ni181   1.919       .  S
O165        C171   1.272       .  A
O166        C171   1.272       .  A
C167       O1313   1.279   1_455  A
C167        C533   1.455       .  S
O168        C170   1.263       .  A
O169       Ni180   1.942       .  S
C170        O176   1.273       .  A
C170        C529   1.435       .  S
C171        C526   1.439       .  S
H172       O1325   0.966   1_455  S
O173       Ni175   1.909       .  S
O173       Ni180   1.898       .  S
O173      Ni1333   1.903       .  S
O173       H1324   0.966       .  S
O174       Ni175   1.957       .  S
Ni175       O179   1.938       .  S
Ni175       O177   1.942       .  S
Ni175      O1311   1.929       .  S
O176       Ni181   1.948       .  S
C178       O1331   1.277   1_455  A
C178        C523   1.440       .  S
O179       C1330   1.281       .  A
Ni181      O1325   1.909   1_455  S
O183       Ni189   1.907       .  S
O183        C204   1.260       .  A
O184       Ni207   1.899       .  S
O184        C193   1.264       .  A
O185       Ni189   1.915       .  S
O185       Ni207   1.909       .  S
O185       Ni201   1.925       .  S
O185        H208   0.966       .  S
C186        O203   1.283       .  A
C186        O195   1.284       .  A
C186        C516   1.455       .  S
O187       Ni206   1.966       .  S
O187        C193   1.279       .  A
O188       Ni206   1.901       .  S
O188        C190   1.267       .  A
Ni189       O192   1.920       .  S
Ni189       O194   1.893       .  S
C190        O200   1.282       .  A
C190       C1671   1.451   1_455  S
O191       Ni207   1.922       .  S
O191        C197   1.274       .  A
O192        C197   1.273       .  A
C193        C534   1.455       .  S
O194        C196   1.263       .  A
O195       Ni206   1.943       .  S
C196        O202   1.269       .  A
C196        C521   1.431       .  S
C197        C518   1.437       .  S
H198        O199   0.967       .  S
O199       Ni207   1.914       .  S
O199       Ni201   1.911       .  S
O199       Ni206   1.895       .  S
O200       Ni201   1.958       .  S
Ni201       O205   1.938       .  S
Ni201       O203   1.941       .  S
O202       Ni207   1.936       .  S
C204        O205   1.276       .  A
C204        C556   1.440       .  S
O209       Ni215   1.896       .  S
O209        C230   1.263       .  A
O210       Ni233   1.895       .  S
O210        C219   1.262       .  A
O211       Ni215   1.917       .  S
O211       Ni233   1.911       .  S
O211       Ni227   1.937       .  S
O211        H234   0.969       .  S
C212        O805   1.284   1_545  A
C212        O797   1.284   1_545  A
C212        C520   1.453       .  S
O213       Ni232   1.966       .  S
O213        C219   1.278       .  A
O214       Ni232   1.896       .  S
O214        C216   1.266       .  A
Ni215       O218   1.924       .  S
Ni215       O220   1.897       .  S
C216        O226   1.283       .  A
C216        C509   1.448       .  S
O217       Ni233   1.909       .  S
O217        C223   1.263       .  A
O218        C223   1.267       .  A
C219        C513   1.454       .  S
O220        C222   1.266       .  A
O221       Ni232   1.939       .  S
O221        C788   1.283       .  A
C222        O228   1.279       .  A
C222        C512   1.437       .  S
C223        C522   1.431       .  S
H224        O225   0.965       .  S
O225       Ni233   1.898       .  S
O225       Ni227   1.906       .  S
O225       Ni232   1.896       .  S
O226       Ni227   1.961       .  S
Ni227       O231   1.941       .  S
Ni227       O229   1.944       .  S
O228       Ni233   1.962       .  S
O229        C788   1.284       .  A
C230        O231   1.282       .  A
C230        C538   1.438       .  S
O235       Ni241   1.902       .  S
O235        C256   1.264       .  A
O236       Ni259   1.896       .  S
O236        C245   1.262       .  A
O237       Ni241   1.919       .  S
O237       Ni259   1.914       .  S
O237       Ni253   1.939       .  S
O237        H260   0.966       .  S
C238        O255   1.284       .  A
C238        O247   1.284       .  A
C238        C507   1.456       .  S
O239       Ni258   1.967       .  S
O239        C245   1.278       .  A
O240       Ni258   1.900       .  S
O240        C242   1.267       .  A
Ni241       O244   1.925       .  S
Ni241       O246   1.901       .  S
C242        O252   1.283       .  A
C242        C527   1.452       .  S
O243       Ni259   1.914       .  S
O243        C249   1.265       .  A
O244        C249   1.267       .  A
C245        C514   1.454       .  S
O246        C248   1.268       .  A
O247       Ni258   1.943       .  S
C248        O254   1.279       .  A
C248        C525   1.440       .  S
C249        C505   1.435       .  S
H250        O251   0.969       .  S
O251       Ni259   1.901       .  S
O251       Ni253   1.908       .  S
O251       Ni258   1.899       .  S
O252       Ni253   1.962       .  S
Ni253       O257   1.941       .  S
Ni253       O255   1.943       .  S
O254       Ni259   1.961       .  S
C256        O257   1.281       .  A
C256        C503   1.443       .  S
O261       Ni267   1.908       .  S
O261        C858   1.260       .  A
O262       Ni285   1.898       .  S
O262        C271   1.263       .  A
O263       Ni267   1.915       .  S
O263       Ni285   1.910       .  S
O263       Ni855   1.923       .  S
O263        H862   0.969       .  S
C264        O281   1.281       .  A
C264        O273   1.284       .  A
C264        C531   1.450       .  S
O265       Ni284   1.961       .  S
O265        C847   1.278       .  A
O266       Ni284   1.901       .  S
O266        C268   1.267       .  A
Ni267       O270   1.919       .  S
Ni267       O272   1.894       .  S
C268        O278   1.284       .  A
C268        C508   1.453       .  S
O269       Ni285   1.918       .  S
O269        C275   1.272       .  A
O270        C275   1.272       .  A
C271        O841   1.278       .  A
C271        C502   1.453       .  S
O272        C274   1.263       .  A
O273       Ni284   1.942       .  S
C274        O280   1.271       .  A
C274        C506   1.435       .  S
C275        C530   1.435       .  S
H276        O277   0.966       .  S
O277       Ni279   1.910       .  S
O277       Ni284   1.893       .  S
O277       Ni861   1.915   1_545  S
O278       Ni279   1.961       .  S
Ni279       O283   1.940       .  S
Ni279       O281   1.935       .  S
Ni279       O839   1.921   1_545  S
O280       Ni285   1.941       .  S
C282        O283   1.277       .  A
C282        O837   1.259   1_545  A
C282        C499   1.443       .  S
Ni285       O853   1.913       .  S
H286        O839   0.969       .  S
O287       Ni293   1.907       .  S
O287        C308   1.260       .  A
O288       Ni311   1.898       .  S
O288        C297   1.264       .  A
O289       Ni293   1.914       .  S
O289       Ni311   1.908       .  S
O289       Ni305   1.925       .  S
O289        H312   0.966       .  S
C290        O307   1.283       .  A
C290        O299   1.284       .  A
C290       C1662   1.452   1_455  S
O291       Ni310   1.965       .  S
O291        C297   1.279       .  A
O292       Ni310   1.901       .  S
O292        C870   1.267       .  A
Ni293       O296   1.920       .  S
Ni293       O298   1.895       .  S
C294        O868   1.267   1_545  A
C294        O880   1.283   1_545  A
C294        C515   1.450       .  S
O295       Ni311   1.921       .  S
O295        C301   1.273       .  A
O296        C301   1.273       .  A
C297        C501   1.453       .  S
O298        C300   1.263       .  A
O299       Ni310   1.940       .  S
C300        O306   1.271       .  A
C300        C517   1.438       .  S
C301        C511   1.436       .  S
H302        O303   0.967       .  S
O303       Ni311   1.910       .  S
O303       Ni305   1.909       .  S
O303       Ni310   1.893       .  S
O304       Ni305   1.958       .  S
O304        C870   1.282       .  A
Ni305       O309   1.941       .  S
Ni305       O307   1.941       .  S
O306       Ni311   1.942       .  S
C308        O309   1.277       .  A
C308        C547   1.443       .  S
O313       Ni319   1.909       .  S
O313        C334   1.261       .  A
O314       Ni337   1.899       .  S
O314        C323   1.264       .  A
O315       Ni319   1.915       .  S
O315       Ni337   1.910       .  S
O315       Ni331   1.922       .  S
O315        H338   0.968       .  S
C316        O333   1.281       .  A
C316        O325   1.284       .  A
C316       C1641   1.449       .  S
O317       Ni336   1.965       .  S
O317        C323   1.279       .  A
O318       Ni336   1.900       .  S
O318        C320   1.267       .  A
Ni319       O322   1.919       .  S
Ni319       O324   1.897       .  S
C320        O330   1.284       .  A
C320        C494   1.453       .  S
O321       Ni337   1.920       .  S
O321        C327   1.273       .  A
O322        C327   1.273       .  A
C323        C498   1.455       .  S
O324        C326   1.264       .  A
O325       Ni336   1.941       .  S
C326        O332   1.271       .  A
C326        C495   1.438       .  S
C327        C491   1.436       .  S
H328        O329   0.965       .  S
O329       Ni337   1.909       .  S
O329       Ni331   1.909       .  S
O329       Ni336   1.893       .  S
O330       Ni331   1.963       .  S
Ni331       O335   1.938       .  S
Ni331       O333   1.935       .  S
O332       Ni337   1.941       .  S
C334        O335   1.276       .  A
C334        C536   1.442       .  S
O339       Ni345   1.912       .  S
O339        C360   1.262       .  A
O340       Ni363   1.894       .  S
O340        C349   1.261       .  A
O341       Ni345   1.916       .  S
O341       Ni363   1.911       .  S
O341       Ni357   1.921       .  S
O341        H364   0.966       .  S
C342        O359   1.282       .  A
C342        O351   1.284       .  A
C342        C483   1.452       .  S
O343       Ni362   1.969       .  S
O343        C349   1.279       .  A
O344       Ni362   1.896       .  S
O344        C346   1.266       .  A
Ni345       O348   1.921       .  S
Ni345       O350   1.898       .  S
C346        O356   1.284       .  A
C346        C488   1.452       .  S
O347       Ni363   1.912       .  S
O347        C353   1.270       .  A
O348        C353   1.273       .  A
C349        C497   1.454       .  S
O350        C352   1.264       .  A
O351       Ni362   1.943       .  S
C352        O358   1.270       .  A
C352        C485   1.437       .  S
C353        C481   1.432       .  S
H354        O355   0.967       .  S
O355       Ni363   1.906       .  S
O355       Ni357   1.912       .  S
O355       Ni362   1.895       .  S
O356       Ni357   1.966       .  S
Ni357       O361   1.941       .  S
Ni357       O359   1.937       .  S
O358       Ni363   1.939       .  S
C360        O361   1.278       .  A
C360        C504   1.446       .  S
O365       Ni371   1.903       .  S
O365        C386   1.261       .  A
O366       Ni389   1.896       .  S
O366        C375   1.262       .  A
O367       Ni371   1.918       .  S
O367       Ni389   1.914       .  S
O367       Ni383   1.925       .  S
O367        H390   0.967       .  S
C368        O385   1.282       .  A
C368        O377   1.284       .  A
C368        C475   1.452       .  S
O369       Ni388   1.964       .  S
O369        C375   1.278       .  A
O370       Ni388   1.896       .  S
O370        C372   1.265       .  A
Ni371       O374   1.919       .  S
Ni371       O376   1.893       .  S
C372        O382   1.282       .  A
C372       C1066   1.448   1_545  S
O373       Ni389   1.911       .  S
O373        C379   1.267       .  A
O374        C379   1.268       .  A
C375        C479   1.453       .  S
O376        C378   1.263       .  A
O377       Ni388   1.942       .  S
C378        O384   1.274       .  A
C378        C492   1.435       .  S
C379        C478   1.431       .  S
H380        O381   0.966       .  S
O381       Ni389   1.904       .  S
O381       Ni383   1.908       .  S
O381       Ni388   1.898       .  S
O382       Ni383   1.959       .  S
Ni383       O387   1.932       .  S
Ni383       O385   1.937       .  S
O384       Ni389   1.952       .  S
C386        O387   1.277       .  A
C386        C542   1.434       .  S
O391       Ni397   1.902       .  S
O391        C412   1.263       .  A
O392       Ni415   1.895       .  S
O392        C401   1.262       .  A
O393       Ni397   1.919       .  S
O393       Ni415   1.917       .  S
O393       Ni985   1.937   1_545  S
O393        H416   0.966       .  S
C394        O411   1.282       .  A
C394        O403   1.284       .  A
C394        C487   1.457       .  S
O395       Ni414   1.966       .  S
O395        C977   1.278       .  A
O396       Ni414   1.895       .  S
O396        C398   1.266       .  A
Ni397       O400   1.919       .  S
Ni397       O402   1.901       .  S
C398        O408   1.282       .  A
C398        C472   1.445       .  S
O399       Ni415   1.915       .  S
O399        C405   1.266       .  A
O400        C405   1.266       .  A
C401        O971   1.278   1_545  A
C401        C480   1.452       .  S
O402        C404   1.267       .  A
O403       Ni414   1.944       .  S
C404        O410   1.277       .  A
C404        C473   1.441       .  S
C405        C486   1.435       .  S
H406        O983   0.968   1_545  S
O407       Ni409   1.910       .  S
O407       Ni414   1.899       .  S
O407       Ni991   1.906       .  S
O407        H982   0.968       .  S
O408       Ni409   1.957       .  S
Ni409       O413   1.938       .  S
Ni409       O411   1.941       .  S
Ni409       O969   1.930       .  S
O410       Ni415   1.958       .  S
C412        O989   1.280   1_545  A
C412        C500   1.441       .  S
O413        C988   1.280       .  A
Ni415       O983   1.901   1_545  S
O417       Ni423   1.908       .  S
O417       C1590   1.260       .  A
O418       Ni441   1.895       .  S
O418        C427   1.263       .  A
O419       Ni423   1.916       .  S
O419       Ni441   1.911       .  S
O419      Ni1587   1.923       .  S
O419       H1594   0.969       .  S
C420        O437   1.281       .  A
C420        O429   1.285       .  A
C420        C471   1.450       .  S
O421       Ni440   1.966       .  S
O421       C1579   1.279       .  A
O422       Ni440   1.897       .  S
O422        C424   1.266       .  A
Ni423       O426   1.924       .  S
Ni423       O428   1.891       .  S
C424        O434   1.281       .  A
C424        C484   1.447       .  S
O425       Ni441   1.922       .  S
O425        C431   1.273       .  A
O426        C431   1.272       .  A
C427       O1573   1.277       .  A
C427        C469   1.448       .  S
O428        C430   1.261       .  A
O429       Ni440   1.943       .  S
C430        O436   1.271       .  A
C430        C482   1.431       .  S
C431        C474   1.441       .  S
H432        O433   0.965       .  S
O433       Ni435   1.910       .  S
O433       Ni440   1.896       .  S
O433      Ni1593   1.909   1_455  S
O434       Ni435   1.956       .  S
Ni435       O439   1.936       .  S
Ni435       O437   1.933       .  S
Ni435      O1571   1.919   1_455  S
O436       Ni441   1.943       .  S
C438        O439   1.276       .  A
C438       O1569   1.261   1_455  A
C438        C524   1.441       .  S
Ni441      O1585   1.911       .  S
H442       O1571   0.969       .  S
O443       Ni449   1.911       .  S
O443        C464   1.262       .  A
O444       Ni467   1.893       .  S
O444        C453   1.261       .  A
O445       Ni449   1.917       .  S
O445       Ni467   1.914       .  S
O445       Ni461   1.925       .  S
O445        H468   0.966       .  S
C446        O463   1.282       .  A
C446        O455   1.282       .  A
C446       C1069   1.451   1_545  S
O447       Ni466   1.960       .  S
O447        C453   1.277       .  A
O448       Ni466   1.901       .  S
O448       C1602   1.267       .  A
Ni449       O452   1.917       .  S
Ni449       O454   1.896       .  S
C450       O1600   1.266   1_455  A
C450       O1612   1.283   1_455  A
C450        C476   1.448       .  S
O451       Ni467   1.920       .  S
O451        C457   1.272       .  A
O452        C457   1.271       .  A
C453        C470   1.447       .  S
O454        C456   1.264       .  A
O455       Ni466   1.938       .  S
C456        O462   1.269       .  A
C456        C477   1.432       .  S
C457        C496   1.436       .  S
H458        O459   0.969       .  S
O459       Ni467   1.910       .  S
O459       Ni461   1.911       .  S
O459       Ni466   1.898       .  S
O460       Ni461   1.963       .  S
O460       C1602   1.284       .  A
Ni461       O465   1.941       .  S
Ni461       O463   1.939       .  S
O462       Ni467   1.934       .  S
C464        O465   1.279       .  A
C464        C565   1.445       .  S
C469        C470   1.213       .  T
C471        C472   1.214       .  T
C473        C474   1.210       .  T
C475        C476   1.215       .  T
C477        C478   1.204       .  T
C479        C480   1.216       .  T
C481        C482   1.204       .  T
C483        C484   1.215       .  T
C485        C486   1.207       .  T
C487        C488   1.218       .  T
C489       C1468   1.450   1_455  S
C489        C490   1.214       .  T
C490        C948   1.446       .  S
C491        C492   1.206       .  T
C493       C1022   1.458       .  S
C493        C494   1.219       .  T
C495        C496   1.207       .  T
C497        C498   1.218       .  T
C499        C500   1.212   1_554  T
C501        C502   1.217       .  T
C503        C504   1.213   1_554  T
C505        C506   1.206       .  T
C507        C508   1.218       .  T
C509        C510   1.216       .  T
C510       C1442   1.453       .  S
C511        C512   1.207       .  T
C513        C514   1.217       .  T
C515        C516   1.217       .  T
C517        C518   1.208       .  T
C519       C1342   1.450       .  S
C519        C520   1.216       .  T
C521        C522   1.204       .  T
C523        C524   1.210   1_554  T
C525        C526   1.209       .  T
C527        C528   1.218       .  T
C529        C530   1.206       .  T
C531        C532   1.214       .  T
C533        C534   1.218       .  T
C535        C536   1.211       .  T
C537        C538   1.211       .  T
C539        C540   1.218       .  T
C541        C542   1.207       .  T
C543       C1296   1.436   1_455  S
C543        C544   1.207       .  T
C545        C546   1.216       .  T
C547        C548   1.212       .  T
C549       C1218   1.437       .  S
C549        C550   1.207       .  T
C551        C552   1.217       .  T
C553       C1130   1.216       .  T
C554       C1129   1.217   1_545  T
C555        C556   1.210       .  T
C557        C558   1.208       .  T
C559        C560   1.217       .  T
C561        C562   1.216       .  T
C563        C694   1.431   1_545  S
C563        C564   1.204       .  T
C565        C566   1.213       .  T
C567        C568   1.216       .  T
C569        C590   1.434       .  S
C569        C570   1.205       .  T
C571        C572   1.218       .  T
C573        C574   1.207       .  T
C575       C1728   1.216       .  T
C576       C1727   1.218   1_455  T
O577       Ni583   1.907       .  S
O577        C598   1.259       .  A
O578       Ni601   1.899       .  S
O578        C587   1.264       .  A
O579       Ni583   1.912       .  S
O579       Ni601   1.908       .  S
O579       Ni595   1.916       .  S
O579        H602   0.966       .  S
C580        O597   1.279       .  A
C580        O589   1.284       .  A
C580       C1147   1.443       .  S
O581       Ni600   1.966       .  S
O581        C587   1.279       .  A
O582       Ni600   1.903       .  S
O582        C584   1.268       .  A
Ni583      O1738   1.916       .  S
Ni583       O588   1.895       .  S
C584        O594   1.282       .  A
C584       C1144   1.451       .  S
O585      Ni1753   1.914   1_455  S
O585        C591   1.271       .  A
O586      Ni1735   1.918   1_455  S
O586        C591   1.272       .  A
C587       C1151   1.455       .  S
O588        C590   1.263       .  A
O589       Ni600   1.940       .  S
C590        O596   1.270       .  A
C591       C1150   1.429       .  S
H592        O593   0.968       .  S
O593       Ni601   1.909       .  S
O593       Ni595   1.911       .  S
O593       Ni600   1.894       .  S
O594       Ni595   1.957       .  S
Ni595       O599   1.940       .  S
Ni595       O597   1.927       .  S
O596       Ni601   1.938       .  S
C598        O599   1.276       .  A
C598       C1142   1.443       .  S
Ni601      O1737   1.917       .  S
O603       Ni609   1.908       .  S
O603        C624   1.261       .  A
O604       Ni627   1.892       .  S
O604        C613   1.261       .  A
O605       Ni609   1.914       .  S
O605       Ni627   1.908       .  S
O605       Ni621   1.922       .  S
O605        H628   0.968       .  S
C606        O623   1.283       .  A
C606        O615   1.283       .  A
C606       C1138   1.453       .  S
O607       Ni626   1.962       .  S
O607        C613   1.277       .  A
O608       Ni626   1.897       .  S
O608        C610   1.266       .  A
Ni609       O612   1.919   1_455  S
Ni609       O614   1.897       .  S
C610        O620   1.281       .  A
C610       C1136   1.445       .  S
O611       Ni627   1.915   1_655  S
O611       C1769   1.271       .  A
O612       C1769   1.272       .  A
C613       C1152   1.448       .  S
O614        C616   1.263       .  A
O615       Ni626   1.939       .  S
C616        O622   1.269       .  A
C616       C1134   1.433       .  S
C617       O1763   1.264       .  A
C617       O1764   1.267       .  A
C617       C1140   1.432       .  S
H618        O619   0.965       .  S
O619       Ni627   1.909       .  S
O619       Ni621   1.907       .  S
O619       Ni626   1.894       .  S
O620       Ni621   1.955       .  S
Ni621       O625   1.932       .  S
Ni621       O623   1.942       .  S
O622       Ni627   1.937       .  S
C624        O625   1.276       .  A
C624       C1131   1.436       .  S
O629       Ni635   1.904       .  S
O629        C650   1.258       .  A
O630       Ni653   1.899       .  S
O630        C639   1.265       .  A
O631       Ni635   1.914       .  S
O631       Ni653   1.909       .  S
O631       Ni647   1.925       .  S
O631        H654   0.965       .  S
C632        O649   1.282       .  A
C632        O641   1.285       .  A
C632       C1135   1.450       .  S
O633       Ni652   1.964       .  S
O633        C639   1.279       .  A
O634       Ni652   1.898       .  S
O634        C636   1.267       .  A
Ni635       O640   1.896       .  S
C636        O646   1.284       .  A
C636       C1127   1.450       .  S
O637        C643   1.264       .  A
O638        C643   1.265       .  A
C639       C1129   1.453       .  S
O640        C642   1.263       .  A
O641       Ni652   1.943       .  S
C642        O648   1.269       .  A
C642       C2277   1.434   1_455  S
C643       C1133   1.432       .  S
H644        O645   0.967       .  S
O645       Ni653   1.910       .  S
O645       Ni647   1.907       .  S
O645       Ni652   1.888       .  S
O646       Ni647   1.961       .  S
Ni647       O651   1.945       .  S
Ni647       O649   1.935       .  S
O648       Ni653   1.934       .  S
C650        O651   1.277       .  A
C650       C1124   1.444       .  S
O655       Ni661   1.905       .  S
O655        C676   1.260       .  A
O656       Ni679   1.893       .  S
O656        C665   1.261       .  A
O657       Ni661   1.914       .  S
O657       Ni679   1.908       .  S
O657       Ni673   1.925       .  S
O657        H680   0.968       .  S
C658        O675   1.283       .  A
C658        O667   1.284       .  A
C658       C1122   1.455       .  S
O659       Ni678   1.965       .  S
O659        C665   1.278       .  A
O660       Ni678   1.893       .  S
O660        C662   1.265       .  A
Ni661       O664   1.919       .  S
Ni661       O666   1.894       .  S
C662        O672   1.278       .  A
C662       C1148   1.438       .  S
O663       Ni679   1.919       .  S
C665       C1130   1.452       .  S
O666        C668   1.263       .  A
O667       Ni678   1.943       .  S
C668        O674   1.268       .  A
C668       C1149   1.431       .  S
C669       C1120   1.432       .  S
H670        O671   0.965       .  S
O671       Ni679   1.910       .  S
O671       Ni673   1.909       .  S
O671       Ni678   1.896       .  S
O672       Ni673   1.947       .  S
Ni673       O677   1.935       .  S
Ni673       O675   1.943       .  S
O674       Ni679   1.931       .  S
C676        O677   1.275       .  A
C676       C1117   1.437       .  S
O681       Ni687   1.903       .  S
O681        C702   1.258       .  A
O682       Ni705   1.899       .  S
O682        C691   1.265       .  A
O683       Ni687   1.913       .  S
O683       Ni705   1.909       .  S
O683       Ni699   1.926       .  S
O683        H706   0.967       .  S
C684        O701   1.283       .  A
C684        O693   1.284       .  A
C684       C1128   1.454       .  S
O685       Ni704   1.963       .  S
O685        C691   1.279       .  A
O686       Ni704   1.902       .  S
O686        C688   1.267       .  A
Ni687       O690   1.916       .  S
Ni687       O692   1.891       .  S
C688        O698   1.282       .  A
C688       C1137   1.450       .  S
O689       Ni705   1.926       .  S
O689        C695   1.275       .  A
O690        C695   1.272       .  A
C691       C1115   1.452       .  S
O692        C694   1.262       .  A
O693       Ni704   1.943       .  S
C694        O700   1.270       .  A
C695       C1126   1.437       .  S
H696        O697   0.966       .  S
O697       Ni705   1.913       .  S
O697       Ni699   1.907       .  S
O697       Ni704   1.891       .  S
O698       Ni699   1.957       .  S
Ni699       O703   1.944       .  S
Ni699       O701   1.941       .  S
O700       Ni705   1.937       .  S
C702        O703   1.277       .  A
C702       C1113   1.443       .  S
O707       Ni713   1.908       .  S
O707        C728   1.260       .  A
O708       Ni731   1.896       .  S
O708        C717   1.262       .  A
O709       Ni713   1.915       .  S
O709       Ni731   1.909       .  S
O709       Ni725   1.927       .  S
O709        H732   0.966       .  S
C710        O727   1.284       .  A
C710        O719   1.283       .  A
C710       C1143   1.453       .  S
O711       Ni730   1.963       .  S
O711        C717   1.278       .  A
O712       Ni730   1.900       .  S
O712        C714   1.267       .  A
Ni713       O716   1.921       .  S
Ni713       O718   1.895       .  S
C714        O724   1.283       .  A
C714       C1121   1.451       .  S
O715       Ni731   1.921       .  S
O715        C721   1.273       .  A
O716        C721   1.273       .  A
C717       C1116   1.451       .  S
O718        C720   1.263       .  A
O719       Ni730   1.939       .  S
C720        O726   1.268       .  A
C720       C2271   1.431       .  S
C721       C1146   1.438       .  S
H722        O723   0.967       .  S
O723       Ni731   1.912       .  S
O723       Ni725   1.910       .  S
O723       Ni730   1.894       .  S
O724       Ni725   1.958       .  S
Ni725       O729   1.944       .  S
Ni725       O727   1.944       .  S
O726       Ni731   1.932       .  S
C728        O729   1.279       .  A
C728       C1111   1.446       .  S
O733       Ni739   1.897       .  S
O733        C754   1.262       .  A
O734       Ni757   1.894       .  S
O734        C743   1.262       .  A
O735       Ni739   1.919       .  S
O735       Ni757   1.914       .  S
O735      Ni1903   1.936   1_455  S
O735        H758   0.967       .  S
C736        O753   1.283       .  A
C736        O745   1.283       .  A
C736       C1104   1.453       .  S
O737       Ni756   1.960       .  S
O737       C1895   1.277       .  A
O738       Ni756   1.899       .  S
O738        C740   1.267       .  A
Ni739       O742   1.919       .  S
Ni739       O744   1.897       .  S
C740        O750   1.283       .  A
C740       C1108   1.450       .  S
O741       Ni757   1.910       .  S
O741        C747   1.264       .  A
O742        C747   1.266       .  A
C743       O1889   1.278   1_455  A
C743       C1109   1.450       .  S
O744        C746   1.266       .  A
O745       Ni756   1.939       .  S
C746        O752   1.278       .  A
C746       C1105   1.439       .  S
C747       C1102   1.430       .  S
H748       O1901   0.966   1_455  S
O749      Ni1909   1.911       .  S
O749       Ni751   1.910       .  S
O749       Ni756   1.895       .  S
O749       H1900   0.966       .  S
O750       Ni751   1.959       .  S
Ni751       O755   1.937       .  S
Ni751       O753   1.942       .  S
Ni751      O1887   1.923       .  S
O752       Ni757   1.960       .  S
C754       O1907   1.277   1_455  A
C754       C1099   1.431       .  S
O755       C1906   1.278       .  A
Ni757      O1901   1.898   1_455  S
O759       Ni765   1.901       .  S
O759        C780   1.263       .  A
O760       Ni783   1.894       .  S
O760        C769   1.261       .  A
O761       Ni765   1.917       .  S
O761       Ni783   1.912       .  S
O761       Ni777   1.933       .  S
O761        H784   0.966       .  S
C762        O779   1.282       .  A
C762        O771   1.282       .  A
C762       C1092   1.453       .  S
O763       Ni782   1.962       .  S
O763        C769   1.277       .  A
O764       Ni782   1.899       .  S
O764        C766   1.267       .  A
Ni765       O768   1.921       .  S
Ni765       O770   1.901       .  S
C766        O776   1.280       .  A
C766       C2247   1.445   1_455  S
O767       Ni783   1.912       .  S
O767        C773   1.265       .  A
O768        C773   1.267       .  A
C769       C1110   1.450       .  S
O770        C772   1.267       .  A
O771       Ni782   1.939       .  S
C772        O778   1.276       .  A
C772       C1097   1.439       .  S
C773       C1094   1.431       .  S
H774        O775   0.967       .  S
O775       Ni783   1.901       .  S
O775       Ni777   1.908       .  S
O775       Ni782   1.900       .  S
O776       Ni777   1.953       .  S
Ni777       O781   1.931       .  S
Ni777       O779   1.940       .  S
O778       Ni783   1.955       .  S
C780        O781   1.278       .  A
C780       C1132   1.435       .  S
O785       Ni791   1.906       .  S
O785        C806   1.261       .  A
O786       Ni809   1.900       .  S
O786        C795   1.265       .  A
O787       Ni791   1.912       .  S
O787       Ni809   1.906       .  S
O787       Ni803   1.925       .  S
O787        H810   0.969       .  S
C788       C1096   1.454       .  S
O789       Ni808   1.959       .  S
O789        C795   1.278       .  A
O790       Ni808   1.898       .  S
O790        C792   1.266       .  A
Ni791       O794   1.921       .  S
Ni791       O796   1.899       .  S
C792        O802   1.285       .  A
C792       C1085   1.451       .  S
O793       Ni809   1.925       .  S
O793        C799   1.276       .  A
O794        C799   1.273       .  A
C795       C1089   1.451       .  S
O796        C798   1.264       .  A
O797       Ni808   1.939       .  S
C798        O804   1.269       .  A
C798       C1088   1.435       .  S
C799       C1098   1.438       .  S
H800        O801   0.965       .  S
O801       Ni809   1.915       .  S
O801       Ni803   1.907       .  S
O801       Ni808   1.890       .  S
O802       Ni803   1.962       .  S
Ni803       O807   1.943       .  S
Ni803       O805   1.944       .  S
O804       Ni809   1.938       .  S
C806        O807   1.279       .  A
C806       C1114   1.444       .  S
O811       Ni817   1.906       .  S
O811        C832   1.262       .  A
O812       Ni835   1.891       .  S
O812        C821   1.259       .  A
O813       Ni817   1.919       .  S
O813       Ni835   1.915       .  S
O813       Ni829   1.922       .  S
O813        H836   0.966       .  S
C814        O831   1.281       .  A
C814        O823   1.284       .  A
C814       C1083   1.451       .  S
O815       Ni834   1.968       .  S
O815        C821   1.278       .  A
O816       Ni834   1.900       .  S
O816        C818   1.267       .  A
Ni817       O820   1.918       .  S
Ni817       O822   1.896       .  S
C818        O828   1.282       .  A
C818       C1103   1.450       .  S
O819       Ni835   1.909       .  S
O819        C825   1.267       .  A
O820        C825   1.269       .  A
C821       C1090   1.451       .  S
O822        C824   1.263       .  A
O823       Ni834   1.942       .  S
C824        O830   1.270       .  A
C824       C1101   1.432       .  S
C825       C1081   1.429       .  S
H826        O827   0.969       .  S
O827       Ni835   1.902       .  S
O827       Ni829   1.912       .  S
O827       Ni834   1.900       .  S
O828       Ni829   1.958       .  S
Ni829       O833   1.938       .  S
Ni829       O831   1.935       .  S
O830       Ni835   1.940       .  S
C832        O833   1.278       .  A
C832       C1079   1.440       .  S
O837       Ni843   1.907       .  S
O838       Ni861   1.897       .  S
O838        C847   1.264   1_565  A
O839       Ni843   1.913       .  S
O839       Ni861   1.906       .  S
C840        O857   1.282       .  A
C840        O849   1.284       .  A
C840       C1107   1.455       .  S
O841       Ni860   1.964       .  S
O842       Ni860   1.896       .  S
O842        C844   1.266       .  A
Ni843       O846   1.923       .  S
Ni843       O848   1.895       .  S
C844        O854   1.282       .  A
C844       C1084   1.447       .  S
O845       Ni861   1.923       .  S
O845        C851   1.276       .  A
O846        C851   1.274       .  A
C847       C1078   1.450   1_545  S
O848        C850   1.262       .  A
O849       Ni860   1.943       .  S
C850        O856   1.268       .  A
C850       C1082   1.430       .  S
C851       C1106   1.438       .  S
H852        O853   0.966       .  S
O853       Ni855   1.913       .  S
O853       Ni860   1.898       .  S
O854       Ni855   1.958       .  S
Ni855       O859   1.941       .  S
Ni855       O857   1.940       .  S
O856       Ni861   1.934       .  S
C858        O859   1.278       .  A
C858       C1075   1.443       .  S
O863       Ni869   1.906       .  S
O863        C884   1.262       .  A
O864       Ni887   1.894       .  S
O864        C873   1.261       .  A
O865       Ni869   1.917       .  S
O865       Ni887   1.912       .  S
O865       Ni881   1.922       .  S
O865        H888   0.966       .  S
C866        O883   1.282       .  A
C866        O875   1.283       .  A
C866       C2238   1.449   1_455  S
O867       Ni886   1.963       .  S
O867        C873   1.277       .  A
O868       Ni886   1.898       .  S
Ni869       O872   1.922       .  S
Ni869       O874   1.897       .  S
C870       C1091   1.450       .  S
O871       Ni887   1.914       .  S
O871        C877   1.269       .  A
O872        C877   1.270       .  A
C873       C1077   1.449       .  S
O874        C876   1.263       .  A
O875       Ni886   1.938       .  S
C876        O882   1.271       .  A
C876       C1093   1.433       .  S
C877       C1087   1.433       .  S
H878        O879   0.968       .  S
O879       Ni887   1.907       .  S
O879       Ni881   1.913       .  S
O879       Ni886   1.898       .  S
O880       Ni881   1.959       .  S
Ni881       O885   1.941       .  S
Ni881       O883   1.937       .  S
O882       Ni887   1.944       .  S
C884        O885   1.280       .  A
C884       C1123   1.442       .  S
O889       Ni895   1.909       .  S
O889        C910   1.261       .  A
O890       Ni913   1.900       .  S
O890        C899   1.263       .  A
O891       Ni895   1.917       .  S
O891       Ni913   1.914       .  S
O891       Ni907   1.922       .  S
O891        H914   0.968       .  S
C892        O909   1.282       .  A
C892        O901   1.284       .  A
C892       C2217   1.454       .  S
O893       Ni912   1.967       .  S
O893        C899   1.278       .  A
O894       Ni912   1.898       .  S
O894        C896   1.266       .  A
Ni895       O898   1.920       .  S
Ni895       O900   1.897       .  S
C896        O906   1.281       .  A
C896       C1070   1.447       .  S
O897       Ni913   1.914       .  S
O897        C903   1.270       .  A
O898        C903   1.271       .  A
C899       C1074   1.457       .  S
O900        C902   1.264       .  A
O901       Ni912   1.945       .  S
C902        O908   1.272       .  A
C902       C1071   1.437       .  S
C903       C1067   1.433       .  S
H904        O905   0.965       .  S
O905       Ni913   1.910       .  S
O905       Ni907   1.915       .  S
O905       Ni912   1.900       .  S
O906       Ni907   1.955       .  S
Ni907       O911   1.942       .  S
Ni907       O909   1.937       .  S
O908       Ni913   1.945       .  S
C910        O911   1.278       .  A
C910       C1112   1.445       .  S
O915       Ni921   1.909       .  S
O915        C936   1.260       .  A
O916       Ni939   1.896       .  S
O916        C925   1.261       .  A
O917       Ni921   1.917       .  S
O917       Ni939   1.908       .  S
O917       Ni933   1.920       .  S
O917        H940   0.966       .  S
C918        O935   1.280       .  A
C918        O927   1.284       .  A
C918       C1059   1.451       .  S
O919       Ni938   1.969       .  S
O919        C925   1.279       .  A
O920       Ni938   1.901       .  S
O920        C922   1.267       .  A
Ni921       O924   1.924       .  S
Ni921       O926   1.897       .  S
C922        O932   1.283       .  A
C922       C1064   1.452       .  S
O923       Ni939   1.912       .  S
O923        C929   1.271       .  A
O924        C929   1.274       .  A
C925       C1073   1.456       .  S
O926        C928   1.263       .  A
O927       Ni938   1.944       .  S
C928        O934   1.269       .  A
C928       C1061   1.435       .  S
C929       C1057   1.434       .  S
H930        O931   0.968       .  S
O931       Ni939   1.910       .  S
O931       Ni933   1.913       .  S
O931       Ni938   1.896       .  S
O932       Ni933   1.960       .  S
Ni933       O937   1.939       .  S
Ni933       O935   1.933       .  S
O934       Ni939   1.937       .  S
C936        O937   1.277       .  A
C936       C1080   1.441       .  S
O941       Ni947   1.908       .  S
O941        C962   1.261       .  A
O942       Ni965   1.897       .  S
O942        C951   1.264       .  A
O943       Ni947   1.914       .  S
O943       Ni965   1.909       .  S
O943       Ni959   1.925       .  S
O943        H966   0.967       .  S
C944        O961   1.283       .  A
C944        O953   1.284       .  A
C944       C1051   1.456       .  S
O945       Ni964   1.964       .  S
O945        C951   1.279       .  A
O946       Ni964   1.898       .  S
O946        C948   1.266       .  A
Ni947       O950   1.922       .  S
Ni947       O952   1.895       .  S
C948        O958   1.281       .  A
O949       Ni965   1.922       .  S
O949        C955   1.273       .  A
O950        C955   1.272       .  A
C951       C1055   1.453       .  S
O952        C954   1.263       .  A
O953       Ni964   1.944       .  S
C954        O960   1.271       .  A
C954       C1068   1.434       .  S
C955       C1054   1.438       .  S
H956        O957   0.966       .  S
O957       Ni965   1.913       .  S
O957       Ni959   1.907       .  S
O957       Ni964   1.894       .  S
O958       Ni959   1.954       .  S
Ni959       O963   1.932       .  S
Ni959       O961   1.942       .  S
O960       Ni965   1.941       .  S
C962        O963   1.276       .  A
C962       C1118   1.436       .  S
O967       Ni973   1.903       .  S
O967        C988   1.264       .  A
O968       Ni991   1.895       .  S
O968        C977   1.262       .  A
O969       Ni973   1.916       .  S
O969       Ni991   1.913       .  S
O969        H992   0.966       .  S
C970        O987   1.284       .  A
C970        O979   1.283       .  A
C970       C1063   1.455       .  S
O971       Ni990   1.965       .  S
O972       Ni990   1.899       .  S
O972        C974   1.266       .  A
Ni973       O976   1.920       .  S
Ni973       O978   1.901       .  S
C974        O984   1.283       .  A
C974       C1048   1.451       .  S
O975       Ni991   1.915       .  S
O975        C981   1.267       .  A
O976        C981   1.267       .  A
C977       C1056   1.453       .  S
O978        C980   1.266       .  A
O979       Ni990   1.940       .  S
C980        O986   1.275       .  A
C980       C1049   1.437       .  S
C981       C1062   1.433       .  S
O983       Ni985   1.907       .  S
O983       Ni990   1.899       .  S
O984       Ni985   1.962       .  S
Ni985       O989   1.939       .  S
Ni985       O987   1.945       .  S
O986       Ni991   1.952       .  S
C988       C1076   1.441       .  S
O993       Ni999   1.905       .  S
O993       C2166   1.259       .  A
O994      Ni1017   1.903       .  S
O994       C1003   1.266       .  A
O995       Ni999   1.912       .  S
O995      Ni1017   1.911       .  S
O995      Ni2163   1.923       .  S
O995       H2170   0.969       .  S
C996       O1013   1.282       .  A
C996       O1005   1.284       .  A
C996       C1047   1.455       .  S
O997      Ni1016   1.967       .  S
O997       C2155   1.278       .  A
O998      Ni1016   1.894       .  S
O998       C1000   1.265       .  A
Ni999      O1002   1.913       .  S
Ni999      O1004   1.891       .  S
C1000      O1010   1.281       .  A
C1000      C1060   1.446       .  S
O1001     Ni1017   1.924       .  S
O1001      C1007   1.274       .  A
O1002      C1007   1.271       .  A
C1003      O2149   1.278       .  A
C1003      C1045   1.455       .  S
O1004      C1006   1.262       .  A
O1005     Ni1016   1.943       .  S
C1006      O1012   1.272       .  A
C1006      C1058   1.434       .  S
C1007      C1050   1.435       .  S
H1008      O1009   0.966       .  S
O1009     Ni2169   1.900   1_455  S
O1009     Ni1011   1.907       .  S
O1009     Ni1016   1.901       .  S
O1010     Ni1011   1.958       .  S
Ni1011     O1015   1.929       .  S
Ni1011     O1013   1.939       .  S
Ni1011     O2147   1.934   1_455  S
O1012     Ni1017   1.942       .  S
C1014      O2145   1.262   1_455  A
C1014      O1015   1.277       .  A
C1014      C1100   1.432       .  S
Ni1017     O2161   1.910       .  S
H1018      O2147   0.969       .  S
O1019     Ni1025   1.899       .  S
O1019      C1040   1.263       .  A
O1020     Ni1043   1.894       .  S
O1020      C1029   1.261       .  A
O1021     Ni1025   1.918       .  S
O1021     Ni1043   1.914       .  S
O1021     Ni1037   1.936       .  S
O1021      H1044   0.966       .  S
C1022      O1039   1.282       .  A
C1022      O1031   1.283       .  A
O1023     Ni1042   1.969       .  S
O1023      C1029   1.279       .  A
O1024     Ni1042   1.896       .  S
O1024      C2178   1.266       .  A
Ni1025     O1028   1.922       .  S
Ni1025     O1030   1.899       .  S
C1026      O2176   1.267   1_455  A
C1026      O2188   1.283   1_455  A
C1026      C1052   1.452       .  S
O1027     Ni1043   1.916       .  S
O1027      C1033   1.266       .  A
O1028      C1033   1.266       .  A
C1029      C1046   1.454       .  S
O1030      C1032   1.267       .  A
O1031     Ni1042   1.944       .  S
C1032      O1038   1.277       .  A
C1032      C1053   1.438       .  S
C1033      C1072   1.435       .  S
H1034      O1035   0.968       .  S
O1035     Ni1043   1.905       .  S
O1035     Ni1037   1.912       .  S
O1035     Ni1042   1.902       .  S
O1036     Ni1037   1.956       .  S
O1036      C2178   1.282       .  A
Ni1037     O1041   1.940       .  S
Ni1037     O1039   1.942       .  S
O1038     Ni1043   1.957       .  S
C1040      O1041   1.280       .  A
C1040      C1141   1.440       .  S
C1045      C1046   1.218       .  T
C1047      C1048   1.217       .  T
C1049      C1050   1.207       .  T
C1051      C1052   1.218       .  T
C1053      C1054   1.208       .  T
C1055      C1056   1.217       .  T
C1057      C1058   1.206       .  T
C1059      C1060   1.214       .  T
C1061      C1062   1.206       .  T
C1063      C1064   1.218       .  T
C1065      C2044   1.453   1_455  S
C1065      C1066   1.216       .  T
C1067      C1068   1.205       .  T
C1069      C1070   1.215       .  T
C1071      C1072   1.207       .  T
C1073      C1074   1.219       .  T
C1075      C1076   1.212   1_554  T
C1077      C1078   1.215       .  T
C1079      C1080   1.211   1_554  T
C1081      C1082   1.203       .  T
C1083      C1084   1.215       .  T
C1085      C1086   1.217       .  T
C1086      C2018   1.455       .  S
C1087      C1088   1.205       .  T
C1089      C1090   1.216       .  T
C1091      C1092   1.216       .  T
C1093      C1094   1.204       .  T
C1095      C1918   1.451       .  S
C1095      C1096   1.217       .  T
C1097      C1098   1.208       .  T
C1099      C1100   1.206   1_554  T
C1101      C1102   1.204       .  T
C1103      C1104   1.216       .  T
C1105      C1106   1.208       .  T
C1107      C1108   1.217       .  T
C1109      C1110   1.215       .  T
C1111      C1112   1.214       .  T
C1113      C1114   1.213       .  T
C1115      C1116   1.216       .  T
C1117      C1118   1.208       .  T
C1119      C1872   1.433   1_455  S
C1119      C1120   1.205       .  T
C1121      C1122   1.217       .  T
C1123      C1124   1.213       .  T
C1125      C1794   1.439       .  S
C1125      C1126   1.208       .  T
C1127      C1128   1.217       .  T
C1131      C1132   1.208       .  T
C1133      C1134   1.205       .  T
C1135      C1136   1.214       .  T
C1137      C1138   1.216       .  T
C1139      C1140   1.204       .  T
C1141      C1142   1.212       .  T
C1143      C1144   1.216       .  T
C1145      C1146   1.208       .  T
C1147      C1148   1.209       .  T
C1149      C1150   1.203       .  T
C1151      C2304   1.218       .  T
C1152      C2303   1.214   1_455  T
O1153     Ni1159   1.909       .  S
O1153      C1174   1.260       .  A
O1154     Ni1177   1.900       .  S
O1154      C1163   1.264       .  A
O1155     Ni1159   1.915       .  S
O1155     Ni1177   1.910       .  S
O1155     Ni1171   1.923       .  S
O1155      H1178   0.966       .  S
C1156      O1173   1.281       .  A
C1156      O1165   1.284       .  A
C1156      C1723   1.452       .  S
O1157     Ni1176   1.967       .  S
O1157      C1163   1.280       .  A
O1158     Ni1176   1.901       .  S
O1158      C1160   1.268       .  A
Ni1159     O1164   1.899       .  S
C1160      O1170   1.282       .  A
C1160      C1720   1.450       .  S
O1161      C1167   1.266       .  A
O1162      C1167   1.266       .  A
C1163      C1727   1.456       .  S
O1164      C1166   1.264       .  A
O1165     Ni1176   1.944       .  S
C1166      O1172   1.268       .  A
C1166      C2297   1.434   1_545  S
C1167      C1726   1.436       .  S
H1168      O1169   0.967       .  S
O1169     Ni1177   1.911       .  S
O1169     Ni1171   1.911       .  S
O1169     Ni1176   1.893       .  S
O1170     Ni1171   1.958       .  S
Ni1171     O1175   1.942       .  S
Ni1171     O1173   1.936       .  S
O1172     Ni1177   1.932       .  S
C1174      O1175   1.277       .  A
C1174      C1718   1.445       .  S
O1179     Ni1185   1.909       .  S
O1179      C1200   1.260       .  A
O1180     Ni1203   1.895       .  S
O1180      C1189   1.262       .  A
O1181     Ni1185   1.914       .  S
O1181     Ni1203   1.908       .  S
O1181     Ni1197   1.920       .  S
O1181      H1204   0.968       .  S
C1182      O1199   1.281       .  A
C1182      O1191   1.285       .  A
C1182      C1714   1.446       .  S
O1183     Ni1202   1.966       .  S
O1183      C1189   1.279       .  A
O1184     Ni1202   1.901       .  S
O1184      C1186   1.267       .  A
Ni1185     O1188   1.919       .  S
Ni1185     O1190   1.898       .  S
C1186      O1196   1.283       .  A
C1186      C1712   1.453       .  S
O1187     Ni1203   1.912       .  S
C1189      C1728   1.452       .  S
O1190      C1192   1.264       .  A
O1191     Ni1202   1.941       .  S
C1192      O1198   1.269       .  A
C1192      C1710   1.437       .  S
C1193      C1716   1.433       .  S
H1194      O1195   0.965       .  S
O1195     Ni1203   1.905       .  S
O1195     Ni1197   1.907       .  S
O1195     Ni1202   1.891       .  S
O1196     Ni1197   1.962       .  S
Ni1197     O1201   1.938       .  S
Ni1197     O1199   1.930       .  S
O1198     Ni1203   1.938       .  S
C1200      O1201   1.276       .  A
C1200      C1707   1.442       .  S
O1205     Ni1211   1.904       .  S
O1205      C1226   1.263       .  A
O1206     Ni1229   1.897       .  S
O1206      C1215   1.262       .  A
O1207     Ni1211   1.919       .  S
O1207     Ni1229   1.915       .  S
O1207     Ni1223   1.932       .  S
O1207      H1230   0.965       .  S
C1208      O1225   1.283       .  A
C1208      O1217   1.283       .  A
C1208      C1711   1.456       .  S
O1209     Ni1228   1.963       .  S
O1209      C1215   1.278       .  A
O1210     Ni1228   1.899       .  S
O1210      C1212   1.267       .  A
Ni1211     O1790   1.922       .  S
Ni1211     O1216   1.900       .  S
C1212      O1222   1.283       .  A
C1212      C1703   1.451       .  S
O1213     Ni1805   1.917   1_545  S
O1213      C1219   1.266       .  A
O1214     Ni1787   1.922   1_545  S
O1214      C1219   1.266       .  A
C1215      C1705   1.452       .  S
O1216      C1218   1.265       .  A
O1217     Ni1228   1.941       .  S
C1218      O1224   1.275       .  A
C1219      C1709   1.435       .  S
H1220      O1221   0.966       .  S
O1221     Ni1229   1.907       .  S
O1221     Ni1223   1.908       .  S
O1221     Ni1228   1.898       .  S
O1222     Ni1223   1.960       .  S
Ni1223     O1227   1.936       .  S
Ni1223     O1225   1.944       .  S
O1224     Ni1229   1.951       .  S
C1226      O1227   1.279       .  A
C1226      C1700   1.439       .  S
Ni1229     O1789   1.918       .  S
O1231     Ni1237   1.909       .  S
O1231      C1252   1.261       .  A
O1232     Ni1255   1.896       .  S
O1232      C1241   1.262       .  A
O1233     Ni1237   1.913       .  S
O1233     Ni1255   1.910       .  S
O1233     Ni1249   1.918       .  S
O1233      H1256   0.968       .  S
C1234      O1251   1.281       .  A
C1234      O1243   1.284       .  A
C1234      C1698   1.450       .  S
O1235     Ni1254   1.970       .  S
O1235      C1241   1.279       .  A
O1236     Ni1254   1.897       .  S
O1236      C1238   1.266       .  A
Ni1237     O1240   1.917       .  S
Ni1237     O1242   1.898       .  S
C1238      O1248   1.282       .  A
C1238      C1724   1.447       .  S
O1239     Ni1255   1.911       .  S
O1239      C1821   1.271   1_545  A
O1240      C1821   1.272   1_545  A
C1241      C1706   1.456       .  S
O1242      C1244   1.264       .  A
O1243     Ni1254   1.943       .  S
C1244      O1250   1.270       .  A
C1244      C1725   1.437       .  S
C1245      O1815   1.275       .  A
C1245      O1816   1.272       .  A
C1245      C1696   1.439       .  S
H1246      O1247   0.965       .  S
O1247     Ni1255   1.907       .  S
O1247     Ni1249   1.911       .  S
O1247     Ni1254   1.895       .  S
O1248     Ni1249   1.958       .  S
Ni1249     O1253   1.939       .  S
Ni1249     O1251   1.934       .  S
O1250     Ni1255   1.940       .  S
C1252      O1253   1.278       .  A
C1252      C1693   1.442       .  S
O1257     Ni1263   1.906       .  S
O1257      C1278   1.259       .  A
O1258     Ni1281   1.898       .  S
O1258      C1267   1.263       .  A
O1259     Ni1263   1.913       .  S
O1259     Ni1281   1.907       .  S
O1259     Ni1275   1.922       .  S
O1259      H1282   0.967       .  S
C1260      O1277   1.281       .  A
C1260      O1269   1.284       .  A
C1260      C1704   1.455       .  S
O1261     Ni1280   1.964       .  S
O1261      C1267   1.278       .  A
O1262     Ni1280   1.895       .  S
O1262      C1264   1.266       .  A
Ni1263     O1266   1.921       .  S
Ni1263     O1268   1.895       .  S
C1264      O1274   1.281       .  A
C1264      C1713   1.441       .  S
O1265     Ni1281   1.925       .  S
O1265      C1271   1.275       .  A
O1266      C1271   1.273       .  A
C1267      C1691   1.452       .  S
O1268      C1270   1.262       .  A
O1269     Ni1280   1.945       .  S
C1270      O1276   1.268       .  A
C1270      C2291   1.432       .  S
C1271      C1702   1.440       .  S
H1272      O1273   0.966       .  S
O1273     Ni1281   1.917       .  S
O1273     Ni1275   1.913       .  S
O1273     Ni1280   1.896       .  S
O1274     Ni1275   1.952       .  S
Ni1275     O1279   1.944       .  S
Ni1275     O1277   1.938       .  S
O1276     Ni1281   1.933       .  S
C1278      O1279   1.277       .  A
C1278      C1689   1.444       .  S
O1283     Ni1289   1.901       .  S
O1283      C1304   1.263       .  A
O1284     Ni1307   1.895       .  S
O1284      C1293   1.262       .  A
O1285     Ni1289   1.917       .  S
O1285     Ni1307   1.914       .  S
O1285     Ni1301   1.935       .  S
O1285      H1308   0.966       .  S
C1286      O1303   1.282       .  A
C1286      O1295   1.283       .  A
C1286      C1719   1.454       .  S
O1287     Ni1306   1.964       .  S
O1287      C1293   1.277       .  A
O1288     Ni1306   1.895       .  S
O1288      C1290   1.266       .  A
Ni1289     O1292   1.922       .  S
Ni1289     O1294   1.898       .  S
C1290      O1300   1.282       .  A
C1290      C1697   1.446       .  S
O1291     Ni1307   1.915       .  S
O1291      C1297   1.266       .  A
O1292      C1297   1.266       .  A
C1293      C1692   1.452       .  S
O1294      C1296   1.267       .  A
O1295     Ni1306   1.940       .  S
C1296      O1302   1.278       .  A
C1297      C1722   1.434       .  S
H1298      O1299   0.967       .  S
O1299     Ni1307   1.902       .  S
O1299     Ni1301   1.910       .  S
O1299     Ni1306   1.899       .  S
O1300     Ni1301   1.957       .  S
Ni1301     O1305   1.941       .  S
Ni1301     O1303   1.941       .  S
O1302     Ni1307   1.959       .  S
C1304      O1305   1.281       .  A
C1304      C1687   1.443       .  S
O1309     Ni1315   1.904       .  S
O1309      C1330   1.264       .  A
O1310     Ni1333   1.896       .  S
O1310      C1319   1.262       .  A
O1311     Ni1315   1.915       .  S
O1311     Ni1333   1.911       .  S
O1311      H1334   0.967       .  S
C1312      O1329   1.283       .  A
C1312      O1321   1.282       .  A
C1312      C1680   1.451       .  S
O1313     Ni1332   1.963       .  S
O1314     Ni1332   1.902       .  S
O1314      C1316   1.267       .  A
Ni1315     O1318   1.923       .  S
Ni1315     O1320   1.901       .  S
C1316      O1326   1.280       .  A
C1316      C1684   1.446       .  S
O1317     Ni1333   1.909       .  S
O1317      C1323   1.266       .  A
O1318      C1323   1.268       .  A
C1319      C1685   1.454       .  S
O1320      C1322   1.266       .  A
O1321     Ni1332   1.938       .  S
C1322      O1328   1.276       .  A
C1322      C1681   1.439       .  S
C1323      C1678   1.430       .  S
O1325     Ni1327   1.909       .  S
O1325     Ni1332   1.894       .  S
O1326     Ni1327   1.952       .  S
Ni1327     O1331   1.934       .  S
Ni1327     O1329   1.942       .  S
O1328     Ni1333   1.958       .  S
C1330      C1675   1.440       .  S
O1335     Ni1341   1.903       .  S
O1335      C1356   1.264       .  A
O1336     Ni1359   1.896       .  S
O1336      C1345   1.262       .  A
O1337     Ni1341   1.916       .  S
O1337     Ni1359   1.914       .  S
O1337     Ni1353   1.932       .  S
O1337      H1360   0.966       .  S
C1338      O1355   1.283       .  A
C1338      O1347   1.283       .  A
C1338      C1668   1.452       .  S
O1339     Ni1358   1.966       .  S
O1339      C1345   1.279       .  A
O1340     Ni1358   1.901       .  S
O1340      C1342   1.267       .  A
Ni1341     O1344   1.921       .  S
Ni1341     O1346   1.899       .  S
C1342      O1352   1.282       .  A
O1343     Ni1359   1.915       .  S
O1343      C1349   1.267       .  A
O1344      C1349   1.267       .  A
C1345      C1686   1.454       .  S
O1346      C1348   1.266       .  A
O1347     Ni1358   1.939       .  S
C1348      O1354   1.277       .  A
C1348      C1673   1.438       .  S
C1349      C1670   1.433       .  S
H1350      O1351   0.967       .  S
O1351     Ni1359   1.902       .  S
O1351     Ni1353   1.908       .  S
O1351     Ni1358   1.898       .  S
O1352     Ni1353   1.958       .  S
Ni1353     O1357   1.937       .  S
Ni1353     O1355   1.941       .  S
O1354     Ni1359   1.959       .  S
C1356      O1357   1.279       .  A
C1356      C1708   1.440       .  S
O1361     Ni1367   1.908       .  S
O1361      C1382   1.260       .  A
O1362     Ni1385   1.901       .  S
O1362      C1371   1.265       .  A
O1363     Ni1367   1.914       .  S
O1363     Ni1385   1.910       .  S
O1363     Ni1379   1.922       .  S
O1363      H1386   0.969       .  S
C1364      O1957   1.283   1_545  A
C1364      O1949   1.283   1_545  A
C1364      C1672   1.455       .  S
O1365     Ni1384   1.963       .  S
O1365      C1371   1.278       .  A
O1366     Ni1384   1.900       .  S
O1366      C1368   1.267       .  A
Ni1367     O1370   1.923       .  S
Ni1367     O1372   1.894       .  S
C1368      O1378   1.282       .  A
C1368      C1661   1.448       .  S
O1369     Ni1385   1.920       .  S
O1369      C1375   1.273       .  A
O1370      C1375   1.273       .  A
C1371      C1665   1.455       .  S
O1372      C1374   1.262       .  A
O1373     Ni1384   1.939       .  S
O1373      C1940   1.283       .  A
C1374      O1380   1.270       .  A
C1374      C1664   1.432       .  S
C1375      C1674   1.438       .  S
H1376      O1377   0.966       .  S
O1377     Ni1385   1.911       .  S
O1377     Ni1379   1.910       .  S
O1377     Ni1384   1.893       .  S
O1378     Ni1379   1.956       .  S
Ni1379     O1383   1.943       .  S
Ni1379     O1381   1.937       .  S
O1380     Ni1385   1.939       .  S
O1381      C1940   1.282       .  A
C1382      O1383   1.278       .  A
C1382      C1690   1.444       .  S
O1387     Ni1393   1.906       .  S
O1387      C1408   1.259       .  A
O1388     Ni1411   1.896       .  S
O1388      C1397   1.263       .  A
O1389     Ni1393   1.913       .  S
O1389     Ni1411   1.908       .  S
O1389     Ni1405   1.920       .  S
O1389      H1412   0.966       .  S
C1390      O1407   1.280       .  A
C1390      O1399   1.284       .  A
C1390      C1659   1.451       .  S
O1391     Ni1410   1.969       .  S
O1391      C1397   1.280       .  A
O1392     Ni1410   1.902       .  S
O1392      C1394   1.268       .  A
Ni1393     O1396   1.917       .  S
Ni1393     O1398   1.894       .  S
C1394      O1404   1.282       .  A
C1394      C1679   1.448       .  S
O1395     Ni1411   1.926       .  S
O1395      C1401   1.276       .  A
O1396      C1401   1.273       .  A
C1397      C1666   1.454       .  S
O1398      C1400   1.263       .  A
O1399     Ni1410   1.946       .  S
C1400      O1406   1.267       .  A
C1400      C1677   1.431       .  S
C1401      C1657   1.437       .  S
H1402      O1403   0.968       .  S
O1403     Ni1411   1.914       .  S
O1403     Ni1405   1.911       .  S
O1403     Ni1410   1.895       .  S
O1404     Ni1405   1.956       .  S
Ni1405     O1409   1.939       .  S
Ni1405     O1407   1.934       .  S
O1406     Ni1411   1.931       .  S
C1408      O1409   1.276       .  A
C1408      C1655   1.441       .  S
O1413     Ni1419   1.904       .  S
O1413      C2010   1.264       .  A
O1414     Ni1437   1.899       .  S
O1414      C1423   1.263       .  A
O1415     Ni1419   1.921       .  S
O1415     Ni1437   1.916       .  S
O1415     Ni2007   1.938       .  S
O1415      H2014   0.969       .  S
C1416      O1433   1.282       .  A
C1416      O1425   1.283       .  A
C1416      C1683   1.450       .  S
O1417     Ni1436   1.962       .  S
O1417      C1999   1.278       .  A
O1418     Ni1436   1.896       .  S
O1418      C1420   1.266       .  A
Ni1419     O1422   1.925       .  S
Ni1419     O1424   1.902       .  S
C1420      O1430   1.282       .  A
C1420      C1660   1.446       .  S
O1421     Ni1437   1.918       .  S
O1421      C1427   1.267       .  A
O1422      C1427   1.267       .  A
C1423      O1993   1.279       .  A
C1423      C1654   1.457       .  S
O1424      C1426   1.267       .  A
O1425     Ni1436   1.939       .  S
C1426      O1432   1.277       .  A
C1426      C1658   1.440       .  S
C1427      C1682   1.439       .  S
H1428      O1429   0.966       .  S
O1429     Ni2013   1.909   1_545  S
O1429     Ni1431   1.908       .  S
O1429     Ni1436   1.892       .  S
O1430     Ni1431   1.957       .  S
Ni1431     O1435   1.935       .  S
Ni1431     O1433   1.939       .  S
Ni1431     O1991   1.921   1_545  S
O1432     Ni1437   1.957       .  S
C1434      O1989   1.261   1_545  A
C1434      O1435   1.276       .  A
C1434      C1651   1.439       .  S
Ni1437     O2005   1.904       .  S
H1438      O1991   0.968       .  S
O1439     Ni1445   1.906       .  S
O1439      C1460   1.260       .  A
O1440     Ni1463   1.896       .  S
O1440      C1449   1.262       .  A
O1441     Ni1445   1.913       .  S
O1441     Ni1463   1.906       .  S
O1441     Ni1457   1.921       .  S
O1441      H1464   0.966       .  S
C1442      O1459   1.281       .  A
C1442      O1451   1.286       .  A
O1443     Ni1462   1.970       .  S
O1443      C1449   1.280       .  A
O1444     Ni1462   1.896       .  S
O1444      C2022   1.266       .  A
Ni1445     O1448   1.915       .  S
Ni1445     O1450   1.900       .  S
C1446      O2020   1.267       .  A
C1446      O2032   1.281   1_545  A
C1446      C1667   1.448       .  S
O1447     Ni1463   1.917       .  S
O1447      C1453   1.273       .  A
O1448      C1453   1.273       .  A
C1449      C1653   1.457       .  S
O1450      C1452   1.264       .  A
O1451     Ni1462   1.948       .  S
C1452      O1458   1.268       .  A
C1452      C1669   1.436       .  S
C1453      C1663   1.431       .  S
H1454      O1455   0.967       .  S
O1455     Ni1463   1.910       .  S
O1455     Ni1457   1.912       .  S
O1455     Ni1462   1.894       .  S
O1456     Ni1457   1.957       .  S
O1456      C2022   1.282       .  A
Ni1457     O1461   1.940       .  S
Ni1457     O1459   1.934       .  S
O1458     Ni1463   1.934       .  S
C1460      O1461   1.276       .  A
C1460      C1699   1.442       .  S
O1465     Ni1471   1.909       .  S
O1465      C1486   1.260       .  A
O1466     Ni1489   1.896       .  S
O1466      C1475   1.262       .  A
O1467     Ni1471   1.916       .  S
O1467     Ni1489   1.911       .  S
O1467     Ni1483   1.920       .  S
O1467      H1490   0.968       .  S
C1468      O1485   1.281       .  A
C1468      O1477   1.285       .  A
O1469     Ni1488   1.970       .  S
O1469      C1475   1.280       .  A
O1470     Ni1488   1.898       .  S
O1470      C1472   1.266       .  A
Ni1471     O1474   1.918       .  S
Ni1471     O1476   1.897       .  S
C1472      O1482   1.282       .  A
C1472      C1646   1.448       .  S
O1473     Ni1489   1.916       .  S
O1473      C1479   1.272       .  A
O1474      C1479   1.272       .  A
C1475      C1650   1.455       .  S
O1476      C1478   1.263       .  A
O1477     Ni1488   1.944       .  S
C1478      O1484   1.270       .  A
C1478      C1647   1.436       .  S
C1479      C1643   1.433       .  S
H1480      O1481   0.965       .  S
O1481     Ni1489   1.907       .  S
O1481     Ni1483   1.913       .  S
O1481     Ni1488   1.896       .  S
O1482     Ni1483   1.958       .  S
Ni1483     O1487   1.942       .  S
Ni1483     O1485   1.934       .  S
O1484     Ni1489   1.939       .  S
C1486      O1487   1.277       .  A
C1486      C1688   1.445       .  S
O1491     Ni1497   1.902       .  S
O1491      C1512   1.264       .  A
O1492     Ni1515   1.897       .  S
O1492      C1501   1.262       .  A
O1493     Ni1497   1.918       .  S
O1493     Ni1515   1.914       .  S
O1493     Ni1509   1.935       .  S
O1493      H1516   0.966       .  S
C1494      O1511   1.282       .  A
C1494      O1503   1.283       .  A
C1494      C1635   1.455       .  S
O1495     Ni1514   1.964       .  S
O1495      C1501   1.277       .  A
O1496     Ni1514   1.895       .  S
O1496      C1498   1.266       .  A
Ni1497     O1500   1.925       .  S
Ni1497     O1502   1.898       .  S
C1498      O1508   1.282       .  A
C1498      C1640   1.445       .  S
O1499     Ni1515   1.912       .  S
O1499      C1505   1.265       .  A
O1500      C1505   1.268       .  A
C1501      C1649   1.456       .  S
O1502      C1504   1.267       .  A
O1503     Ni1514   1.942       .  S
C1504      O1510   1.277       .  A
C1504      C1637   1.436       .  S
C1505      C1633   1.436       .  S
H1506      O1507   0.967       .  S
O1507     Ni1515   1.903       .  S
O1507     Ni1509   1.909       .  S
O1507     Ni1514   1.900       .  S
O1508     Ni1509   1.956       .  S
Ni1509     O1513   1.937       .  S
Ni1509     O1511   1.942       .  S
O1510     Ni1515   1.955       .  S
C1512      O1513   1.279       .  A
C1512      C1656   1.439       .  S
O1517     Ni1523   1.900       .  S
O1517      C1538   1.263       .  A
O1518     Ni1541   1.895       .  S
O1518      C1527   1.261       .  A
O1519     Ni1523   1.920       .  S
O1519     Ni1541   1.912       .  S
O1519     Ni1535   1.937       .  S
O1519      H1542   0.967       .  S
C1520      O1537   1.283       .  A
C1520      O1529   1.283       .  A
C1520      C1627   1.457       .  S
O1521     Ni1540   1.965       .  S
O1521      C1527   1.278       .  A
O1522     Ni1540   1.896       .  S
O1522      C1524   1.266       .  A
Ni1523     O1526   1.923       .  S
Ni1523     O1528   1.899       .  S
C1524      O1534   1.283       .  A
C1524      C2218   1.449   1_545  S
O1525     Ni1541   1.917       .  S
O1525      C1531   1.266       .  A
O1526      C1531   1.267       .  A
C1527      C1631   1.453       .  S
O1528      C1530   1.266       .  A
O1529     Ni1540   1.942       .  S
C1530      O1536   1.276       .  A
C1530      C1644   1.434       .  S
C1531      C1630   1.436       .  S
H1532      O1533   0.966       .  S
O1533     Ni1541   1.907       .  S
O1533     Ni1535   1.910       .  S
O1533     Ni1540   1.900       .  S
O1534     Ni1535   1.960       .  S
Ni1535     O1539   1.939       .  S
Ni1535     O1537   1.944       .  S
O1536     Ni1541   1.953       .  S
C1538      O1539   1.281       .  A
C1538      C1694   1.440       .  S
O1543     Ni1549   1.907       .  S
O1543      C1564   1.260       .  A
O1544     Ni1567   1.899       .  S
O1544      C1553   1.264       .  A
O1545     Ni1549   1.912       .  S
O1545     Ni1567   1.908       .  S
O1545     Ni2137   1.921   1_545  S
O1545      H1568   0.966       .  S
C1546      O1563   1.280       .  A
C1546      O1555   1.284       .  A
C1546      C1639   1.449       .  S
O1547     Ni1566   1.972       .  S
O1547      C2129   1.279       .  A
O1548     Ni1566   1.897       .  S
O1548      C1550   1.267       .  A
Ni1549     O1552   1.919       .  S
Ni1549     O1554   1.893       .  S
C1550      O1560   1.282       .  A
C1550      C1624   1.447       .  S
O1551     Ni1567   1.920       .  S
O1551      C1557   1.274       .  A
O1552      C1557   1.272       .  A
C1553      O2123   1.279   1_545  A
C1553      C1632   1.453       .  S
O1554      C1556   1.263       .  A
O1555     Ni1566   1.945       .  S
C1556      O1562   1.270       .  A
C1556      C1625   1.432       .  S
C1557      C1638   1.435       .  S
H1558      O2135   0.968   1_545  S
O1559     Ni2143   1.910       .  S
O1559     Ni1561   1.918       .  S
O1559     Ni1566   1.899       .  S
O1559      H2134   0.968       .  S
O1560     Ni1561   1.957       .  S
Ni1561     O1565   1.945       .  S
Ni1561     O1563   1.931       .  S
Ni1561     O2121   1.916       .  S
O1562     Ni1567   1.937       .  S
C1564      O2141   1.275   1_545  A
C1564      C1652   1.438       .  S
O1565      C2140   1.278       .  A
Ni1567     O2135   1.914   1_545  S
O1569     Ni1575   1.909       .  S
O1570     Ni1593   1.896       .  S
O1570      C1579   1.263   1_655  A
O1571     Ni1575   1.912       .  S
O1571     Ni1593   1.907       .  S
C1572      O1589   1.282       .  A
C1572      O1581   1.283       .  A
C1572      C1623   1.451       .  S
O1573     Ni1592   1.960       .  S
O1574     Ni1592   1.899       .  S
O1574      C1576   1.266       .  A
Ni1575     O1578   1.920       .  S
Ni1575     O1580   1.893       .  S
C1576      O1586   1.282       .  A
C1576      C1636   1.451       .  S
O1577     Ni1593   1.914       .  S
O1577      C1583   1.272       .  A
O1578      C1583   1.273       .  A
C1579      C1621   1.453   1_455  S
O1580      C1582   1.262       .  A
O1581     Ni1592   1.940       .  S
C1582      O1588   1.271       .  A
C1582      C1634   1.435       .  S
C1583      C1626   1.431       .  S
H1584      O1585   0.966       .  S
O1585     Ni1587   1.910       .  S
O1585     Ni1592   1.897       .  S
O1586     Ni1587   1.961       .  S
Ni1587     O1591   1.939       .  S
Ni1587     O1589   1.939       .  S
O1588     Ni1593   1.944       .  S
C1590      O1591   1.278       .  A
C1590      C1676   1.441       .  S
O1595     Ni1601   1.910       .  S
O1595      C1616   1.264       .  A
O1596     Ni1619   1.896       .  S
O1596      C1605   1.262       .  A
O1597     Ni1601   1.918       .  S
O1597     Ni1619   1.916       .  S
O1597     Ni1613   1.926       .  S
O1597      H1620   0.966       .  S
C1598      O1615   1.281       .  A
C1598      O1607   1.283       .  A
C1598      C2221   1.451   1_545  S
O1599     Ni1618   1.964       .  S
O1599      C1605   1.277       .  A
O1600     Ni1618   1.896       .  S
Ni1601     O1604   1.921       .  S
Ni1601     O1606   1.901       .  S
C1602      C1628   1.454       .  S
O1603     Ni1619   1.914       .  S
O1603      C1609   1.268       .  A
O1604      C1609   1.269       .  A
C1605      C1622   1.453       .  S
O1606      C1608   1.266       .  A
O1607     Ni1618   1.940       .  S
C1608      O1614   1.274       .  A
C1608      C1629   1.437       .  S
C1609      C1648   1.434       .  S
H1610      O1611   0.968       .  S
O1611     Ni1619   1.906       .  S
O1611     Ni1613   1.912       .  S
O1611     Ni1618   1.900       .  S
O1612     Ni1613   1.959       .  S
Ni1613     O1617   1.938       .  S
Ni1613     O1615   1.936       .  S
O1614     Ni1619   1.951       .  S
C1616      O1617   1.279       .  A
C1616      C1717   1.444       .  S
C1621      C1622   1.217       .  T
C1623      C1624   1.215       .  T
C1625      C1626   1.204       .  T
C1627      C1628   1.219       .  T
C1629      C1630   1.207       .  T
C1631      C1632   1.217       .  T
C1633      C1634   1.206       .  T
C1635      C1636   1.217       .  T
C1637      C1638   1.206       .  T
C1639      C1640   1.214       .  T
C1641      C1642   1.213       .  T
C1642      C2100   1.444       .  S
C1643      C1644   1.205       .  T
C1645      C2174   1.452       .  S
C1645      C1646   1.215       .  T
C1647      C1648   1.206       .  T
C1649      C1650   1.218       .  T
C1651      C1652   1.209   1_554  T
C1653      C1654   1.219       .  T
C1655      C1656   1.211   1_554  T
C1657      C1658   1.208       .  T
C1659      C1660   1.215       .  T
C1661      C1662   1.215       .  T
C1663      C1664   1.204       .  T
C1665      C1666   1.218       .  T
C1667      C1668   1.215       .  T
C1669      C1670   1.206       .  T
C1671      C1672   1.217       .  T
C1673      C1674   1.208       .  T
C1675      C1676   1.211   1_554  T
C1677      C1678   1.203       .  T
C1679      C1680   1.215       .  T
C1681      C1682   1.208       .  T
C1683      C1684   1.214       .  T
C1685      C1686   1.217       .  T
C1687      C1688   1.213       .  T
C1689      C1690   1.213       .  T
C1691      C1692   1.216       .  T
C1693      C1694   1.211       .  T
C1695      C1696   1.209       .  T
C1697      C1698   1.214       .  T
C1699      C1700   1.211       .  T
C1701      C1702   1.209       .  T
C1703      C1704   1.217       .  T
C1705      C2282   1.216       .  T
C1706      C2281   1.219   1_545  T
C1707      C1708   1.211       .  T
C1709      C1710   1.207       .  T
C1711      C1712   1.218       .  T
C1713      C1714   1.212       .  T
C1715      C1846   1.436   1_545  S
C1715      C1716   1.206       .  T
C1717      C1718   1.213       .  T
C1719      C1720   1.216       .  T
C1721      C1742   1.436       .  S
C1721      C1722   1.206       .  T
C1723      C1724   1.215       .  T
C1725      C1726   1.207       .  T
O1729     Ni1735   1.908       .  S
O1729      C1750   1.261       .  A
O1730     Ni1753   1.896       .  S
O1730      C1739   1.262       .  A
O1731     Ni1735   1.914       .  S
O1731     Ni1753   1.908       .  S
O1731     Ni1747   1.920       .  S
O1731      H1754   0.966       .  S
C1732      O1749   1.282       .  A
C1732      O1741   1.282       .  A
C1732      C2299   1.452       .  S
O1733     Ni1752   1.960       .  S
O1733      C1739   1.276       .  A
O1734     Ni1752   1.898       .  S
O1734      C1736   1.266       .  A
Ni1735     O1740   1.899       .  S
C1736      O1746   1.282       .  A
C1736      C2296   1.448       .  S
O1737      C1743   1.273       .  A
O1738      C1743   1.273       .  A
C1739      C2303   1.449       .  S
O1740      C1742   1.264       .  A
O1741     Ni1752   1.938       .  S
C1742      O1748   1.270       .  A
C1743      C2302   1.431       .  S
H1744      O1745   0.967       .  S
O1745     Ni1753   1.912       .  S
O1745     Ni1747   1.913       .  S
O1745     Ni1752   1.897       .  S
O1746     Ni1747   1.957       .  S
Ni1747     O1751   1.940       .  S
Ni1747     O1749   1.940       .  S
O1748     Ni1753   1.940       .  S
C1750      O1751   1.277       .  A
C1750      C2294   1.443       .  S
O1755     Ni1761   1.902       .  S
O1755      C1776   1.263       .  A
O1756     Ni1779   1.895       .  S
O1756      C1765   1.261       .  A
O1757     Ni1761   1.922       .  S
O1757     Ni1779   1.916       .  S
O1757     Ni1773   1.936       .  S
O1757      H1780   0.968       .  S
C1758      O1775   1.282       .  A
C1758      O1767   1.284       .  A
C1758      C2290   1.456       .  S
O1759     Ni1778   1.969       .  S
O1759      C1765   1.279       .  A
O1760     Ni1778   1.898       .  S
O1760      C1762   1.266       .  A
Ni1761     O1764   1.922       .  S
Ni1761     O1766   1.900       .  S
C1762      O1772   1.285       .  A
C1762      C2288   1.455       .  S
O1763     Ni1779   1.911       .  S
C1765      C2304   1.455       .  S
O1766      C1768   1.267       .  A
O1767     Ni1778   1.946       .  S
C1768      O1774   1.277       .  A
C1768      C2286   1.440       .  S
C1769      C2292   1.431       .  S
H1770      O1771   0.965       .  S
O1771     Ni1779   1.901       .  S
O1771     Ni1773   1.908       .  S
O1771     Ni1778   1.899       .  S
O1772     Ni1773   1.968       .  S
Ni1773     O1777   1.935       .  S
Ni1773     O1775   1.938       .  S
O1774     Ni1779   1.958       .  S
C1776      O1777   1.279       .  A
C1776      C2283   1.438       .  S
O1781     Ni1787   1.903       .  S
O1781      C1802   1.264       .  A
O1782     Ni1805   1.898       .  S
O1782      C1791   1.263       .  A
O1783     Ni1787   1.920       .  S
O1783     Ni1805   1.915       .  S
O1783     Ni1799   1.938       .  S
O1783      H1806   0.965       .  S
C1784      O1801   1.282       .  A
C1784      O1793   1.284       .  A
C1784      C2287   1.459       .  S
O1785     Ni1804   1.968       .  S
O1785      C1791   1.279       .  A
O1786     Ni1804   1.895       .  S
O1786      C1788   1.266       .  A
Ni1787     O1792   1.901       .  S
C1788      O1798   1.283       .  A
C1788      C2279   1.447       .  S
O1789      C1795   1.269       .  A
O1790      C1795   1.268       .  A
C1791      C2281   1.457       .  S
O1792      C1794   1.268       .  A
O1793     Ni1804   1.947       .  S
C1794      O1800   1.278       .  A
C1795      C2285   1.438       .  S
H1796      O1797   0.966       .  S
O1797     Ni1805   1.905       .  S
O1797     Ni1799   1.909       .  S
O1797     Ni1804   1.899       .  S
O1798     Ni1799   1.960       .  S
Ni1799     O1803   1.935       .  S
Ni1799     O1801   1.941       .  S
O1800     Ni1805   1.958       .  S
C1802      O1803   1.279       .  A
C1802      C2276   1.440       .  S
O1807     Ni1813   1.906       .  S
O1807      C1828   1.259       .  A
O1808     Ni1831   1.898       .  S
O1808      C1817   1.264       .  A
O1809     Ni1813   1.915       .  S
O1809     Ni1831   1.908       .  S
O1809     Ni1825   1.925       .  S
O1809      H1832   0.968       .  S
C1810      O1827   1.281       .  A
C1810      O1819   1.284       .  A
C1810      C2274   1.452       .  S
O1811     Ni1830   1.962       .  S
O1811      C1817   1.279       .  A
O1812     Ni1830   1.901       .  S
O1812      C1814   1.267       .  A
Ni1813     O1816   1.917       .  S
Ni1813     O1818   1.896       .  S
C1814      O1824   1.281       .  A
C1814      C2300   1.449       .  S
O1815     Ni1831   1.926       .  S
C1817      C2282   1.452       .  S
O1818      C1820   1.263       .  A
O1819     Ni1830   1.944       .  S
C1820      O1826   1.269       .  A
C1820      C2301   1.433       .  S
C1821      C2272   1.429       .  S
H1822      O1823   0.965       .  S
O1823     Ni1831   1.913       .  S
O1823     Ni1825   1.908       .  S
O1823     Ni1830   1.894       .  S
O1824     Ni1825   1.956       .  S
Ni1825     O1829   1.932       .  S
Ni1825     O1827   1.936       .  S
O1826     Ni1831   1.934       .  S
C1828      O1829   1.274       .  A
C1828      C2269   1.435       .  S
O1833     Ni1839   1.906       .  S
O1833      C1854   1.259       .  A
O1834     Ni1857   1.897       .  S
O1834      C1843   1.263       .  A
O1835     Ni1839   1.914       .  S
O1835     Ni1857   1.907       .  S
O1835     Ni1851   1.923       .  S
O1835      H1858   0.967       .  S
C1836      O1853   1.281       .  A
C1836      O1845   1.285       .  A
C1836      C2280   1.452       .  S
O1837     Ni1856   1.966       .  S
O1837      C1843   1.279       .  A
O1838     Ni1856   1.897       .  S
O1838      C1840   1.266       .  A
Ni1839     O1842   1.914       .  S
Ni1839     O1844   1.899       .  S
C1840      O1850   1.284       .  A
C1840      C2289   1.451       .  S
O1841     Ni1857   1.921       .  S
O1841      C1847   1.274       .  A
O1842      C1847   1.273       .  A
C1843      C2267   1.454       .  S
O1844      C1846   1.264       .  A
O1845     Ni1856   1.946       .  S
C1846      O1852   1.268       .  A
C1847      C2278   1.431       .  S
H1848      O1849   0.966       .  S
O1849     Ni1857   1.912       .  S
O1849     Ni1851   1.911       .  S
O1849     Ni1856   1.893       .  S
O1850     Ni1851   1.964       .  S
Ni1851     O1855   1.943       .  S
Ni1851     O1853   1.934       .  S
O1852     Ni1857   1.934       .  S
C1854      O1855   1.277       .  A
C1854      C2265   1.444       .  S
O1859     Ni1865   1.908       .  S
O1859      C1880   1.262       .  A
O1860     Ni1883   1.896       .  S
O1860      C1869   1.262       .  A
O1861     Ni1865   1.915       .  S
O1861     Ni1883   1.913       .  S
O1861     Ni1877   1.921       .  S
O1861      H1884   0.966       .  S
C1862      O1879   1.282       .  A
C1862      O1871   1.283       .  A
C1862      C2295   1.452       .  S
O1863     Ni1882   1.966       .  S
O1863      C1869   1.278       .  A
O1864     Ni1882   1.898       .  S
O1864      C1866   1.266       .  A
Ni1865     O1868   1.919       .  S
Ni1865     O1870   1.898       .  S
C1866      O1876   1.282       .  A
C1866      C2273   1.448       .  S
O1867     Ni1883   1.914       .  S
O1867      C1873   1.270       .  A
O1868      C1873   1.270       .  A
C1869      C2268   1.454       .  S
O1870      C1872   1.264       .  A
O1871     Ni1882   1.941       .  S
C1872      O1878   1.271       .  A
C1873      C2298   1.431       .  S
H1874      O1875   0.967       .  S
O1875     Ni1883   1.908       .  S
O1875     Ni1877   1.911       .  S
O1875     Ni1882   1.896       .  S
O1876     Ni1877   1.956       .  S
Ni1877     O1881   1.937       .  S
Ni1877     O1879   1.939       .  S
O1878     Ni1883   1.942       .  S
C1880      O1881   1.278       .  A
C1880      C2263   1.441       .  S
O1885     Ni1891   1.911       .  S
O1885      C1906   1.263       .  A
O1886     Ni1909   1.899       .  S
O1886      C1895   1.263       .  A
O1887     Ni1891   1.914       .  S
O1887     Ni1909   1.910       .  S
O1887      H1910   0.967       .  S
C1888      O1905   1.281       .  A
C1888      O1897   1.283       .  A
C1888      C2256   1.453       .  S
O1889     Ni1908   1.963       .  S
O1890     Ni1908   1.902       .  S
O1890      C1892   1.267       .  A
Ni1891     O1894   1.926       .  S
Ni1891     O1896   1.899       .  S
C1892      O1902   1.282       .  A
C1892      C2260   1.452       .  S
O1893     Ni1909   1.916       .  S
O1893      C1899   1.271       .  A
O1894      C1899   1.272       .  A
C1895      C2261   1.451       .  S
O1896      C1898   1.264       .  A
O1897     Ni1908   1.941       .  S
C1898      O1904   1.271       .  A
C1898      C2257   1.434       .  S
C1899      C2254   1.437       .  S
O1901     Ni1903   1.903       .  S
O1901     Ni1908   1.898       .  S
O1902     Ni1903   1.960       .  S
Ni1903     O1907   1.928       .  S
Ni1903     O1905   1.938       .  S
O1904     Ni1909   1.944       .  S
C1906      C2251   1.441       .  S
O1911     Ni1917   1.911       .  S
O1911      C1932   1.263       .  A
O1912     Ni1935   1.892       .  S
O1912      C1921   1.260       .  A
O1913     Ni1917   1.917       .  S
O1913     Ni1935   1.912       .  S
O1913     Ni1929   1.922       .  S
O1913      H1936   0.966       .  S
C1914      O1931   1.282       .  A
C1914      O1923   1.283       .  A
C1914      C2244   1.452       .  S
O1915     Ni1934   1.966       .  S
O1915      C1921   1.278       .  A
O1916     Ni1934   1.901       .  S
O1916      C1918   1.267       .  A
Ni1917     O1920   1.924       .  S
Ni1917     O1922   1.898       .  S
C1918      O1928   1.282       .  A
O1919     Ni1935   1.911       .  S
O1919      C1925   1.269       .  A
O1920      C1925   1.271       .  A
C1921      C2262   1.451       .  S
O1922      C1924   1.264       .  A
O1923     Ni1934   1.941       .  S
C1924      O1930   1.270       .  A
C1924      C2249   1.434       .  S
C1925      C2246   1.434       .  S
H1926      O1927   0.967       .  S
O1927     Ni1935   1.905       .  S
O1927     Ni1929   1.910       .  S
O1927     Ni1934   1.898       .  S
O1928     Ni1929   1.958       .  S
Ni1929     O1933   1.934       .  S
Ni1929     O1931   1.938       .  S
O1930     Ni1935   1.940       .  S
C1932      O1933   1.277       .  A
C1932      C2284   1.439       .  S
O1937     Ni1943   1.902       .  S
O1937      C1958   1.263       .  A
O1938     Ni1961   1.900       .  S
O1938      C1947   1.263       .  A
O1939     Ni1943   1.915       .  S
O1939     Ni1961   1.914       .  S
O1939     Ni1955   1.933       .  S
O1939      H1962   0.969       .  S
C1940      C2248   1.449       .  S
O1941     Ni1960   1.965       .  S
O1941      C1947   1.278       .  A
O1942     Ni1960   1.899       .  S
O1942      C1944   1.267       .  A
Ni1943     O1946   1.921       .  S
Ni1943     O1948   1.896       .  S
C1944      O1954   1.281       .  A
C1944      C2237   1.446       .  S
O1945     Ni1961   1.913       .  S
O1945      C1951   1.266       .  A
O1946      C1951   1.267       .  A
C1947      C2241   1.457       .  S
O1948      C1950   1.266       .  A
O1949     Ni1960   1.940       .  S
C1950      O1956   1.277       .  A
C1950      C2240   1.433       .  S
C1951      C2250   1.432       .  S
H1952      O1953   0.966       .  S
O1953     Ni1961   1.903       .  S
O1953     Ni1955   1.909       .  S
O1953     Ni1960   1.897       .  S
O1954     Ni1955   1.954       .  S
Ni1955     O1959   1.940       .  S
Ni1955     O1957   1.944       .  S
O1956     Ni1961   1.955       .  S
C1958      O1959   1.280       .  A
C1958      C2266   1.442       .  S
O1963     Ni1969   1.908       .  S
O1963      C1984   1.261       .  A
O1964     Ni1987   1.894       .  S
O1964      C1973   1.262       .  A
O1965     Ni1969   1.915       .  S
O1965     Ni1987   1.911       .  S
O1965     Ni1981   1.924       .  S
O1965      H1988   0.966       .  S
C1966      O1983   1.283       .  A
C1966      O1975   1.286       .  A
C1966      C2235   1.456       .  S
O1967     Ni1986   1.972       .  S
O1967      C1973   1.280       .  A
O1968     Ni1986   1.899       .  S
O1968      C1970   1.266       .  A
Ni1969     O1972   1.919       .  S
Ni1969     O1974   1.897       .  S
C1970      O1980   1.282       .  A
C1970      C2255   1.450       .  S
O1971     Ni1987   1.913       .  S
O1971      C1977   1.270       .  A
O1972      C1977   1.272       .  A
C1973      C2242   1.457       .  S
O1974      C1976   1.263       .  A
O1975     Ni1986   1.947       .  S
C1976      O1982   1.271       .  A
C1976      C2253   1.437       .  S
C1977      C2233   1.432       .  S
H1978      O1979   0.969       .  S
O1979     Ni1987   1.905       .  S
O1979     Ni1981   1.908       .  S
O1979     Ni1986   1.895       .  S
O1980     Ni1981   1.959       .  S
Ni1981     O1985   1.937       .  S
Ni1981     O1983   1.940       .  S
O1982     Ni1987   1.942       .  S
C1984      O1985   1.277       .  A
C1984      C2231   1.440       .  S
O1989     Ni1995   1.908       .  S
O1990     Ni2013   1.898       .  S
O1990      C1999   1.264   1_565  A
O1991     Ni1995   1.912       .  S
O1991     Ni2013   1.910       .  S
C1992      O2009   1.283       .  A
C1992      O2001   1.284       .  A
C1992      C2259   1.456       .  S
O1993     Ni2012   1.968       .  S
O1994     Ni2012   1.897       .  S
O1994      C1996   1.267       .  A
Ni1995     O1998   1.916       .  S
Ni1995     O2000   1.894       .  S
C1996      O2006   1.284       .  A
C1996      C2236   1.452       .  S
O1997     Ni2013   1.919       .  S
O1997      C2003   1.273       .  A
O1998      C2003   1.272       .  A
C1999      C2230   1.453   1_545  S
O2000      C2002   1.263       .  A
O2001     Ni2012   1.943       .  S
C2002      O2008   1.270       .  A
C2002      C2234   1.433       .  S
C2003      C2258   1.433       .  S
H2004      O2005   0.966       .  S
O2005     Ni2007   1.911       .  S
O2005     Ni2012   1.899       .  S
O2006     Ni2007   1.964       .  S
Ni2007     O2011   1.944       .  S
Ni2007     O2009   1.943       .  S
O2008     Ni2013   1.938       .  S
C2010      O2011   1.282       .  A
C2010      C2227   1.446       .  S
O2015     Ni2021   1.910       .  S
O2015      C2036   1.261       .  A
O2016     Ni2039   1.897       .  S
O2016      C2025   1.263       .  A
O2017     Ni2021   1.916       .  S
O2017     Ni2039   1.910       .  S
O2017     Ni2033   1.921       .  S
O2017      H2040   0.966       .  S
C2018      O2035   1.281       .  A
C2018      O2027   1.285       .  A
O2019     Ni2038   1.968       .  S
O2019      C2025   1.279       .  A
O2020     Ni2038   1.900   1_545  S
Ni2021     O2024   1.921       .  S
Ni2021     O2026   1.893       .  S
C2022      C2243   1.447       .  S
O2023     Ni2039   1.914       .  S
O2023      C2029   1.271       .  A
O2024      C2029   1.272       .  A
C2025      C2229   1.454       .  S
O2026      C2028   1.262       .  A
O2027     Ni2038   1.947       .  S
C2028      O2034   1.271       .  A
C2028      C2245   1.434       .  S
C2029      C2239   1.433       .  S
H2030      O2031   0.967       .  S
O2031     Ni2039   1.909       .  S
O2031     Ni2033   1.912       .  S
O2031     Ni2038   1.898       .  S
O2032     Ni2033   1.955       .  S
Ni2033     O2037   1.935       .  S
Ni2033     O2035   1.936       .  S
O2034     Ni2039   1.942       .  S
C2036      O2037   1.276       .  A
C2036      C2275   1.441       .  S
O2041     Ni2047   1.907       .  S
O2041      C2062   1.260       .  A
O2042     Ni2065   1.897       .  S
O2042      C2051   1.263       .  A
O2043     Ni2047   1.915       .  S
O2043     Ni2065   1.912       .  S
O2043     Ni2059   1.924       .  S
O2043      H2066   0.968       .  S
C2044      O2061   1.283       .  A
C2044      O2053   1.285       .  A
O2045     Ni2064   1.969       .  S
O2045      C2051   1.279       .  A
O2046     Ni2064   1.898       .  S
O2046      C2048   1.266       .  A
Ni2047     O2050   1.917       .  S
Ni2047     O2052   1.897       .  S
C2048      O2058   1.280       .  A
C2048      C2222   1.447       .  S
O2049     Ni2065   1.919       .  S
O2049      C2055   1.272       .  A
O2050      C2055   1.272       .  A
C2051      C2226   1.456       .  S
O2052      C2054   1.264       .  A
O2053     Ni2064   1.944       .  S
C2054      O2060   1.271       .  A
C2054      C2223   1.438       .  S
C2055      C2219   1.435       .  S
H2056      O2057   0.965       .  S
O2057     Ni2065   1.906       .  S
O2057     Ni2059   1.910       .  S
O2057     Ni2064   1.894       .  S
O2058     Ni2059   1.955       .  S
Ni2059     O2063   1.940       .  S
Ni2059     O2061   1.938       .  S
O2060     Ni2065   1.939       .  S
C2062      O2063   1.277       .  A
C2062      C2264   1.442       .  S
O2067     Ni2073   1.907       .  S
O2067      C2088   1.260       .  A
O2068     Ni2091   1.900       .  S
O2068      C2077   1.264       .  A
O2069     Ni2073   1.914       .  S
O2069     Ni2091   1.908       .  S
O2069     Ni2085   1.923       .  S
O2069      H2092   0.966       .  S
C2070      O2087   1.282       .  A
C2070      O2079   1.284       .  A
C2070      C2211   1.449       .  S
O2071     Ni2090   1.965       .  S
O2071      C2077   1.279       .  A
O2072     Ni2090   1.898       .  S
O2072      C2074   1.266       .  A
Ni2073     O2076   1.922       .  S
Ni2073     O2078   1.893       .  S
C2074      O2084   1.283       .  A
C2074      C2216   1.450       .  S
O2075     Ni2091   1.916       .  S
O2075      C2081   1.272       .  A
O2076      C2081   1.274       .  A
C2077      C2225   1.456       .  S
O2078      C2080   1.262       .  A
O2079     Ni2090   1.942       .  S
C2080      O2086   1.271       .  A
C2080      C2213   1.433       .  S
C2081      C2209   1.435       .  S
H2082      O2083   0.968       .  S
O2083     Ni2091   1.908       .  S
O2083     Ni2085   1.909       .  S
O2083     Ni2090   1.892       .  S
O2084     Ni2085   1.960       .  S
Ni2085     O2089   1.938       .  S
Ni2085     O2087   1.935       .  S
O2086     Ni2091   1.940       .  S
C2088      O2089   1.276       .  A
C2088      C2232   1.440       .  S
O2093     Ni2099   1.906       .  S
O2093      C2114   1.264       .  A
O2094     Ni2117   1.899       .  S
O2094      C2103   1.264       .  A
O2095     Ni2099   1.914       .  S
O2095     Ni2117   1.911       .  S
O2095     Ni2111   1.924       .  S
O2095      H2118   0.967       .  S
C2096      O2113   1.280       .  A
C2096      O2105   1.284       .  A
C2096      C2203   1.449       .  S
O2097     Ni2116   1.967       .  S
O2097      C2103   1.279       .  A
O2098     Ni2116   1.897       .  S
O2098      C2100   1.266       .  A
Ni2099     O2102   1.925       .  S
Ni2099     O2104   1.899       .  S
C2100      O2110   1.280       .  A
O2101     Ni2117   1.911       .  S
O2101      C2107   1.267       .  A
O2102      C2107   1.269       .  A
C2103      C2207   1.458       .  S
O2104      C2106   1.265       .  A
O2105     Ni2116   1.942       .  S
C2106      O2112   1.276       .  A
C2106      C2220   1.435       .  S
C2107      C2206   1.432       .  S
H2108      O2109   0.966       .  S
O2109     Ni2117   1.902       .  S
O2109     Ni2111   1.906       .  S
O2109     Ni2116   1.895       .  S
O2110     Ni2111   1.953       .  S
Ni2111     O2115   1.927       .  S
Ni2111     O2113   1.934       .  S
O2112     Ni2117   1.956       .  S
C2114      O2115   1.276       .  A
C2114      C2270   1.434       .  S
O2119     Ni2125   1.911       .  S
O2119      C2140   1.261       .  A
O2120     Ni2143   1.898       .  S
O2120      C2129   1.261       .  A
O2121     Ni2125   1.915       .  S
O2121     Ni2143   1.910       .  S
O2121      H2144   0.966       .  S
C2122      O2139   1.281       .  A
C2122      O2131   1.284       .  A
C2122      C2215   1.455       .  S
O2123     Ni2142   1.965       .  S
O2124     Ni2142   1.899       .  S
O2124      C2126   1.267       .  A
Ni2125     O2128   1.922       .  S
Ni2125     O2130   1.896       .  S
C2126      O2136   1.279       .  A
C2126      C2200   1.442       .  S
O2127     Ni2143   1.912       .  S
O2127      C2133   1.271       .  A
O2128      C2133   1.273       .  A
C2129      C2208   1.458       .  S
O2130      C2132   1.263       .  A
O2131     Ni2142   1.944       .  S
C2132      O2138   1.269       .  A
C2132      C2201   1.433       .  S
C2133      C2214   1.432       .  S
O2135     Ni2137   1.911       .  S
O2135     Ni2142   1.897       .  S
O2136     Ni2137   1.948       .  S
Ni2137     O2141   1.935       .  S
Ni2137     O2139   1.938       .  S
O2138     Ni2143   1.938       .  S
C2140      C2228   1.448       .  S
O2145     Ni2151   1.897       .  S
O2146     Ni2169   1.892       .  S
O2146      C2155   1.261   1_655  A
O2147     Ni2151   1.919       .  S
O2147     Ni2169   1.914       .  S
C2148      O2165   1.281       .  A
C2148      O2157   1.284       .  A
C2148      C2199   1.446       .  S
O2149     Ni2168   1.962       .  S
O2150     Ni2168   1.897       .  S
O2150      C2152   1.266       .  A
Ni2151     O2154   1.920       .  S
Ni2151     O2156   1.892       .  S
C2152      O2162   1.280       .  A
C2152      C2212   1.445       .  S
O2153     Ni2169   1.911       .  S
O2153      C2159   1.264       .  A
O2154      C2159   1.266       .  A
C2155      C2197   1.452   1_455  S
O2156      C2158   1.264       .  A
O2157     Ni2168   1.940       .  S
C2158      O2164   1.278       .  A
C2158      C2210   1.434       .  S
C2159      C2202   1.431       .  S
H2160      O2161   0.966       .  S
O2161     Ni2163   1.910       .  S
O2161     Ni2168   1.894       .  S
O2162     Ni2163   1.953       .  S
Ni2163     O2167   1.940       .  S
Ni2163     O2165   1.933       .  S
O2164     Ni2169   1.958       .  S
C2166      O2167   1.276       .  A
C2166      C2252   1.442       .  S
O2171     Ni2177   1.909       .  S
O2171      C2192   1.261       .  A
O2172     Ni2195   1.896       .  S
O2172      C2181   1.263       .  A
O2173     Ni2177   1.912       .  S
O2173     Ni2195   1.908       .  S
O2173     Ni2189   1.923       .  S
O2173      H2196   0.966       .  S
C2174      O2191   1.282       .  A
C2174      O2183   1.284       .  A
O2175     Ni2194   1.965       .  S
O2175      C2181   1.279       .  A
O2176     Ni2194   1.901       .  S
Ni2177     O2180   1.918       .  S
Ni2177     O2182   1.898       .  S
C2178      C2204   1.445       .  S
O2179     Ni2195   1.922       .  S
O2179      C2185   1.274       .  A
O2180      C2185   1.272       .  A
C2181      C2198   1.452       .  S
O2182      C2184   1.264       .  A
O2183     Ni2194   1.942       .  S
C2184      O2190   1.269       .  A
C2184      C2205   1.434       .  S
C2185      C2224   1.436       .  S
H2186      O2187   0.969       .  S
O2187     Ni2195   1.912       .  S
O2187     Ni2189   1.908       .  S
O2187     Ni2194   1.893       .  S
O2188     Ni2189   1.960       .  S
Ni2189     O2193   1.939       .  S
Ni2189     O2191   1.939       .  S
O2190     Ni2195   1.936       .  S
C2192      O2193   1.277       .  A
C2192      C2293   1.443       .  S
C2197      C2198   1.216       .  T
C2199      C2200   1.212       .  T
C2201      C2202   1.204       .  T
C2203      C2204   1.213       .  T
C2205      C2206   1.205       .  T
C2207      C2208   1.220       .  T
C2209      C2210   1.206       .  T
C2211      C2212   1.213       .  T
C2213      C2214   1.205       .  T
C2215      C2216   1.217       .  T
C2217      C2218   1.216       .  T
C2219      C2220   1.206       .  T
C2221      C2222   1.215       .  T
C2223      C2224   1.207       .  T
C2225      C2226   1.219       .  T
C2227      C2228   1.215   1_554  T
C2229      C2230   1.217       .  T
C2231      C2232   1.210   1_554  T
C2233      C2234   1.204       .  T
C2235      C2236   1.218       .  T
C2237      C2238   1.214       .  T
C2239      C2240   1.205       .  T
C2241      C2242   1.219       .  T
C2243      C2244   1.215       .  T
C2245      C2246   1.205       .  T
C2247      C2248   1.213       .  T
C2249      C2250   1.205       .  T
C2251      C2252   1.211   1_554  T
C2253      C2254   1.207       .  T
C2255      C2256   1.216       .  T
C2257      C2258   1.205       .  T
C2259      C2260   1.218       .  T
C2261      C2262   1.216       .  T
C2263      C2264   1.211       .  T
C2265      C2266   1.213       .  T
C2267      C2268   1.217       .  T
C2269      C2270   1.207       .  T
C2271      C2272   1.203       .  T
C2273      C2274   1.215       .  T
C2275      C2276   1.211       .  T
C2277      C2278   1.205       .  T
C2279      C2280   1.215       .  T
C2283      C2284   1.210       .  T
C2285      C2286   1.208       .  T
C2287      C2288   1.220       .  T
C2289      C2290   1.218       .  T
C2291      C2292   1.204       .  T
C2293      C2294   1.212       .  T
C2295      C2296   1.216       .  T
C2297      C2298   1.205       .  T
C2299      C2300   1.216       .  T
C2301      C2302   1.204       .  T
