geometry optimzed in LAMMPS
_audit_creation_date              2020-12-01 
_audit_creation_method            'lammps2cif' 
_symmetry_space_group_name_H-M    'P1' 
_symmetry_Int_Tables_number       1 
_symmetry_cell_setting            triclinic 
loop_ 
_symmetry_equiv_pos_as_xyz 
  x,y,z 
_cell_length_a                    42.22400178 
_cell_length_b                    42.00679871240049 
_cell_length_c                    32.66056280523814 
_cell_angle_alpha                 89.83043075131864 
_cell_angle_beta                  90.27809968055817 
_cell_angle_gamma                 120.40034818776017 
loop_ 
_atom_site_label 
_atom_site_type_symbol 
_atom_site_fract_x 
_atom_site_fract_y 
_atom_site_fract_z 
_atom_site_charge 
Fe1        Fe  0.35424189  0.18852803  0.34340413     1.65800
Fe2        Fe  0.36290395  0.26163009  0.39427664     1.73200
Fe3        Fe  0.28511431  0.20616254  0.34224282     1.54400
O4          O  0.29210825  0.18945615  0.28496278    -0.81800
O5          O  0.32223880  0.24028888  0.43737138    -0.80100
O6          O  0.34827809  0.19696759  0.28229733    -0.84300
O7          O  0.30338583  0.13961231  0.34272088    -0.79200
O8          O  0.30475550  0.25761276  0.31838777    -0.81000
O9          O  0.38743294  0.23643510  0.42560796    -0.83700
C10         C  0.27113387  0.12998213  0.35483535     0.97100
C11         C  0.31862449  0.19085100  0.26497423     1.04500
O12         O  0.33406513  0.21886968  0.35966058    -1.12700
O13         O  0.40651174  0.28462820  0.35365149    -0.75100
O14         O  0.40838905  0.23330786  0.34304065    -0.78600
O15         O  0.26151224  0.15311431  0.36397515    -0.79300
C16         C  0.42432228  0.26847224  0.34517632     0.96000
O17         O  0.35966979  0.17827501  0.40371662    -0.77300
O18         O  0.34015412  0.29201720  0.36937759    -0.82400
C19         C  0.28879298  0.23082933  0.43262855     0.98600
C20         C  0.31845275  0.28676886  0.33949432     1.04500
O21         O  0.27265639  0.22188010  0.39793329    -0.78100
C22         C  0.37768397  0.20262890  0.43059896     1.02800
Fe23       Fe  0.20643833  0.34049516  0.66839470     1.65800
Fe24       Fe  0.28025724  0.34983837  0.61889481     1.73200
Fe25       Fe  0.22195505  0.26979823  0.66669260     1.54400
O26         O  0.20537889  0.27598096  0.72442011    -0.81800
O27         O  0.26138214  0.31013817  0.57440171    -0.80100
O28         O  0.21405098  0.33287895  0.72933034    -0.84300
O29         O  0.15733179  0.29014732  0.66794120    -0.79200
O30         O  0.27230935  0.28662828  0.69136029    -0.81000
O31         O  0.25524931  0.37404590  0.58627712    -0.83700
C32         C  0.14716821  0.25814680  0.65410934     0.97100
C33         C  0.20742638  0.30248043  0.74551851     1.04500
O34         O  0.23650271  0.32006335  0.65164688    -1.12700
O35         O  0.30188037  0.39326862  0.66014819    -0.75100
O36         O  0.25071086  0.39460087  0.67048279    -0.78600
O37         O  0.16972032  0.24825823  0.64384719    -0.79300
C38         C  0.28562264  0.41088682  0.66895396     0.96000
O39         O  0.19732168  0.34711453  0.60802488    -0.77300
O40         O  0.31011988  0.32721061  0.64574276    -0.82400
C41         C  0.24880809  0.27570318  0.57710302     0.98600
C42         C  0.30315548  0.30329661  0.67379085     1.04500
O43         O  0.23724522  0.25796524  0.61058746    -0.78100
C44         C  0.22160404  0.36432067  0.58093036     1.02800
Fe45       Fe  0.35759597  0.14167768  0.67679426     1.65800
Fe46       Fe  0.42342120  0.13450863  0.72593625     1.73200
Fe47       Fe  0.44444179  0.21345165  0.67512231     1.54400
O48         O  0.42145148  0.20369946  0.61689432    -0.81800
O49         O  0.44512501  0.17546614  0.76863555    -0.80100
O50         O  0.37161088  0.14718419  0.61595945    -0.84300
O51         O  0.35793234  0.19135373  0.67547837    -0.79200
O52         O  0.47934374  0.19746692  0.65321501    -0.81000
O53         O  0.37482901  0.11079280  0.75934073    -0.83700
C54         C  0.38008599  0.22433543  0.68650528     0.97100
C55         C  0.39605772  0.17598365  0.59773942     1.04500
O56         O  0.40883076  0.16339243  0.69235486    -1.12700
O57         O  0.40103757  0.09007852  0.68619231    -0.75100
O58         O  0.34788122  0.08768620  0.67683951    -0.78600
O59         O  0.41350148  0.23578262  0.69427555    -0.79300
C60         C  0.36682421  0.07184304  0.67857728     0.96000
O61         O  0.34306319  0.13673214  0.73722556    -0.77300
O62         O  0.47512046  0.15606698  0.69864998    -0.82400
C63         C  0.46581660  0.21010931  0.76560073     0.98600
C64         C  0.49239054  0.17966475  0.67058636     1.04500
O65         O  0.47121870  0.22765138  0.73199811    -0.78100
C66         C  0.35056313  0.11991737  0.76441254     1.02800
Fe67       Fe  0.15394516  0.28275777  0.00122566     1.65800
Fe68       Fe  0.08660095  0.20878823  0.95220915     1.73200
Fe69       Fe  0.06802848  0.26769110  0.00242236     1.54400
O70         O  0.09260488  0.28422392  0.05927051    -0.81800
O71         O  0.06520204  0.22857353  0.90937304    -0.80100
O72         O  0.14043844  0.27548840  0.06300952    -0.84300
O73         O  0.15397977  0.33252699  0.00123582    -0.79200
O74         O  0.03436815  0.21719024  0.02739892    -0.81000
O75         O  0.13471885  0.23376152  0.91783333    -0.83700
C76         C  0.13204858  0.34269624  0.98817060     0.97100
C77         C  0.11702639  0.28192182  0.07988601     1.04500
O78         O  0.10263356  0.25270928  0.98570569    -1.12700
O79         O  0.10925229  0.18644332  0.99142602    -0.75100
O80         O  0.16267643  0.23785610  0.00184870    -0.78600
O81         O  0.09895503  0.31998668  0.97933932    -0.79300
C82         C  0.14349354  0.20274119  0.99939057     0.96000
O83         O  0.16807655  0.29170397  0.94034698    -0.77300
O84         O  0.03480795  0.17894692  0.98091257    -0.82400
C85         C  0.04460074  0.24219381  0.91319830     0.98600
C86         C  0.01911094  0.18608491  0.00990796     1.04500
O87         O  0.03904880  0.25290664  0.94736325    -0.78100
C88         C  0.15937574  0.26746816  0.91264208     1.02800
Fe89       Fe  0.30424894  0.13414150  0.01033623     1.65800
Fe90       Fe  0.23052605  0.06659326  0.05799077     1.73200
Fe91       Fe  0.28779168  0.04698820  0.00597685     1.54400
O92         O  0.30401275  0.07220729  0.94957732    -0.81800
O93         O  0.24998522  0.04428686  0.09989221    -0.80100
O94         O  0.29702030  0.12142718  0.94873462    -0.84300
O95         O  0.35337741  0.13346112  0.01097528    -0.79200
O96         O  0.23707549  0.01400942  0.98109779    -0.81000
O97         O  0.25536798  0.11460074  0.09300482    -0.83700
C98         C  0.36324689  0.11067598  0.02205521     0.97100
C99         C  0.30211667  0.09763020  0.93049892     1.04500
O100        O  0.27401572  0.08239536  0.02447709    -1.12700
O101        O  0.20849985  0.08971416  0.01922849    -0.75100
O102        O  0.25969145  0.14324909  0.00881360    -0.78600
O103        O  0.34044989  0.07690214  0.02832083    -0.79300
C104        C  0.22470076  0.12390767  0.01030081     0.96000
O105        O  0.31310563  0.14798751  0.07129929    -0.77300
O106        O  0.20047679  0.01500338  0.02898037    -0.82400
C107        C  0.26200722  0.02238162  0.09492611     0.98600
C108        C  0.20661430  0.49904473  0.99943215     1.04500
O109        O  0.27269470  0.01721214  0.06054909    -0.78100
C110        C  0.28881780  0.13939187  0.09858375     1.02800
Fe111      Fe  0.15373070  0.33881566  0.33613668     1.65800
Fe112      Fe  0.14707437  0.40427370  0.28394413     1.73200
Fe113      Fe  0.22609975  0.42551222  0.33422861     1.54400
O114        O  0.21678981  0.40446538  0.39337557    -0.81800
O115        O  0.18776654  0.42560794  0.24123588    -0.80100
O116        O  0.16021713  0.35495483  0.39663819    -0.84300
O117        O  0.20278986  0.33835332  0.33931019    -0.79200
O118        O  0.21204846  0.46265512  0.35389581    -0.81000
O119        O  0.12421210  0.35498991  0.25115389    -0.83700
C120        C  0.23546243  0.35984495  0.32754780     0.97100
C121        C  0.18976546  0.37957575  0.41370127     1.04500
O122        O  0.17567853  0.38996535  0.31853746    -1.12700
O123        O  0.10232287  0.38234627  0.32287874    -0.75100
O124        O  0.10007496  0.32947887  0.33580892    -0.78600
O125        O  0.24665396  0.39267642  0.31663723    -0.79300
C126        C  0.08435429  0.34850336  0.33297813     0.96000
O127        O  0.14849705  0.32240578  0.27586167    -0.77300
O128        O  0.16816363  0.45654369  0.31104526    -0.82400
C129        C  0.22245571  0.44465646  0.24323639     0.98600
C130        C  0.19267712  0.47462276  0.33811697     1.04500
O131        O  0.24033857  0.45004196  0.27647578    -0.78100
C132        C  0.13312997  0.33031420  0.24725833     1.02800
C133        C  0.27811715  0.01900984  0.16713175    -0.21500
C134        C  0.26111991  0.00079029  0.13055292    -0.09500
C135        C  0.23700769  0.46253136  0.13073080     0.29400
C136        C  0.22720244  0.44345859  0.16782228    -0.21500
C137        C  0.24161660  0.46225366  0.20496968    -0.09500
C138        C  0.26888106  0.99975939  0.20422783     0.29400
F139        F  0.28337828  0.01864450  0.23954998    -0.20000
H140        H  0.29661117  0.04863469  0.16727390     0.17700
H141        H  0.20618386  0.41448657  0.16783734     0.17700
F142        F  0.21965512  0.44450835  0.09582893    -0.20000
C143        C  0.09650451  0.30758818  0.18350321    -0.21500
C144        C  0.12576868  0.31127308  0.20739564    -0.09500
C145        C  0.14998038  0.30100045  0.19060914     0.29400
C146        C  0.14634435  0.28997014  0.14949088    -0.21500
C147        C  0.11830826  0.28860611  0.12474002    -0.09500
C148        C  0.09248963  0.29616205  0.14292210     0.29400
F149        F  0.06395152  0.29406186  0.12128526    -0.20000
H150        H  0.07720597  0.31479995  0.19593592     0.17700
H151        H  0.16631769  0.28391627  0.13666076     0.17700
F152        F  0.17858940  0.30405441  0.21293606    -0.20000
C153        C  0.16947788  0.40391856  0.95479266    -0.21500
C154        C  0.14505675  0.38233451  0.98557686    -0.09500
C155        C  0.13548568  0.39932040  0.01614413     0.29400
C156        C  0.15276735  0.43782462  0.01798491    -0.21500
C157        C  0.17981545  0.45991909  0.98927842    -0.09500
C158        C  0.18636171  0.44240341  0.95611924     0.29400
F159        F  0.21098366  0.46240207  0.92648520    -0.20000
H160        H  0.17657262  0.39102539  0.93063340     0.17700
H161        H  0.14711471  0.45026282  0.04382645     0.17700
F162        F  0.11165572  0.37876184  0.04613209    -0.20000
C163        C  0.20073622  0.19930655  0.99321344    -0.21500
C164        C  0.16304879  0.18133968  0.00249363    -0.09500
C165        C  0.14506313  0.14331581  0.01163418     0.29400
C166        C  0.16479991  0.12443360  0.01282367    -0.21500
C167        C  0.20277730  0.14276264  0.00427723    -0.09500
C168        C  0.22024533  0.18050161  0.99371563     0.29400
F169        F  0.25645021  0.19968606  0.98403443    -0.20000
H170        H  0.21533429  0.22824187  0.98484356     0.17700
H171        H  0.15039809  0.09552826  0.02125881     0.17700
F172        F  0.10866979  0.12453421  0.02036817    -0.20000
C173        C  0.46294423  0.17188057  0.04914323    -0.21500
C174        C  0.48017168  0.15985914  0.02125039    -0.09500
C175        C  0.45800451  0.12703542  0.99923335     0.29400
C176        C  0.41956174  0.10919034  0.00210907    -0.21500
C177        C  0.40282227  0.12412900  0.02631728    -0.09500
C178        C  0.42478586  0.15471659  0.05105448     0.29400
F179        F  0.40934465  0.16915648  0.07556080    -0.20000
H180        H  0.47890000  0.19658500  0.06727045     0.17700
H181        H  0.40286936  0.08529013  0.98308546     0.17700
F182        F  0.47314978  0.11369500  0.97277234    -0.20000
C183        C  0.48703876  0.22780518  0.87723295    -0.21500
C184        C  0.02527531  0.24378140  0.87645052    -0.09500
C185        C  0.04398991  0.25596135  0.83899238     0.29400
C186        C  0.02428778  0.24913785  0.80239847    -0.21500
C187        C  0.48582080  0.22932318  0.80286770    -0.09500
C188        C  0.46730367  0.22013968  0.84061155     0.29400
F189        F  0.43003022  0.20090363  0.84178724    -0.20000
H190        H  0.47224341  0.21823934  0.90585361     0.17700
H191        H  0.03893538  0.25602710  0.77358412     0.17700
F192        F  0.08112850  0.27222892  0.83765535    -0.20000
C193        C  0.32407625  0.07889013  0.82443787    -0.21500
C194        C  0.33138410  0.11113580  0.80380929    -0.09500
C195        C  0.32410460  0.13657317  0.82318529     0.29400
C196        C  0.31263209  0.13115850  0.86395031    -0.21500
C197        C  0.30791901  0.10015026  0.88571170    -0.09500
C198        C  0.31195234  0.07304902  0.86478059     0.29400
F199        F  0.30563531  0.04148036  0.88354797    -0.20000
H200        H  0.32886338  0.05865125  0.80963872     0.17700
H201        H  0.30924041  0.15217638  0.87899888     0.17700
F202        F  0.33091077  0.16806621  0.80391377    -0.20000
C203        C  0.19239977  0.26226062  0.80717482    -0.21500
C204        C  0.20017584  0.29628174  0.79010666    -0.09500
C205        C  0.19840638  0.32240002  0.81552482     0.29400
C206        C  0.18723428  0.31364201  0.85631402    -0.21500
C207        C  0.17727736  0.27871937  0.87229812    -0.09500
C208        C  0.18088834  0.25343821  0.84764047     0.29400
F209        F  0.17254154  0.21981904  0.86236245    -0.20000
H210        H  0.19399026  0.24169148  0.78880429     0.17700
H211        H  0.18449708  0.33350396  0.87477762     0.17700
F212        F  0.20588678  0.35572036  0.80073822    -0.20000
C213        C  0.09144489  0.20597939  0.68455382    -0.21500
C214        C  0.10774029  0.23124817  0.65238733    -0.09500
C215        C  0.08557520  0.23395252  0.62223866     0.29400
C216        C  0.04738650  0.21338555  0.62585172    -0.21500
C217        C  0.03074629  0.19052168  0.66018543    -0.09500
C218        C  0.05320952  0.18573750  0.68862943     0.29400
F219        F  0.03867762  0.16454949  0.72251997    -0.20000
H220        H  0.10843604  0.20391404  0.70817977     0.17700
H221        H  0.03093123  0.21758203  0.60331199     0.17700
F222        F  0.10088665  0.25816764  0.59077417    -0.20000
C223        C  0.34576048  0.47183620  0.67070934    -0.21500
C224        C  0.30718240  0.45194258  0.67428548    -0.09500
C225        C  0.28902134  0.47217708  0.67882147     0.29400
C226        C  0.30871288  0.01072642  0.67890559    -0.21500
C227        C  0.34715716  0.03071276  0.67505992    -0.09500
C228        C  0.36560773  0.01071940  0.67139958     0.29400
F229        F  0.40271401  0.02858985  0.66805278    -0.20000
H230        H  0.36064223  0.45730974  0.66684079     0.17700
H231        H  0.29353550  0.02497601  0.68264849     0.17700
F232        F  0.25195559  0.45495340  0.68258834    -0.20000
C233        C  0.37955173  0.28097227  0.66381004    -0.21500
C234        C  0.36603936  0.24997739  0.68957050    -0.09500
C235        C  0.33603938  0.24115956  0.71481920     0.29400
C236        C  0.31846440  0.26166429  0.71268045    -0.21500
C237        C  0.32942769  0.29058071  0.68403197    -0.09500
C238        C  0.36120770  0.30099745  0.66064347     0.29400
F239        F  0.37299736  0.32858593  0.63264406    -0.20000
H240        H  0.40271851  0.28804863  0.64404163     0.17700
H241        H  0.29440801  0.25290381  0.73152225     0.17700
F242        F  0.32258770  0.21151470  0.74018747    -0.20000
C243        C  0.17650794  0.34616286  0.52384333    -0.21500
C244        C  0.21048981  0.37200645  0.54103552    -0.09500
C245        C  0.23525482  0.40263281  0.51773541     0.29400
C246        C  0.22712313  0.40599025  0.47710917    -0.21500
C247        C  0.19438103  0.37864592  0.45864737    -0.09500
C248        C  0.16848042  0.34922135  0.48292987     0.29400
F249        F  0.13635017  0.32226847  0.46678796    -0.20000
H250        H  0.15706242  0.32228579  0.54131479     0.17700
H251        H  0.24739117  0.42934142  0.45962223     0.17700
F252        F  0.26786029  0.42876967  0.53383315    -0.20000
C253        C  0.48536025  0.27327262  0.35320086    -0.21500
C254        C  0.46521330  0.29016083  0.34157411    -0.09500
C255        C  0.48475974  0.32751412  0.32957815     0.29400
C256        C  0.02347612  0.34683681  0.32800625    -0.21500
C257        C  0.04357437  0.32955681  0.33902588    -0.08900
C258        C  0.02375229  0.29253538  0.35232776     0.29400
F259        F  0.04130146  0.27450841  0.36445498    -0.20000
H260        H  0.47131013  0.24493820  0.36375682     0.17700
H261        H  0.03766347  0.37512928  0.31736967     0.17700
F262        F  0.46653823  0.34508871  0.31835404    -0.20000
C263        C  0.30584958  0.33574901  0.36366710    -0.21500
C264        C  0.30454126  0.31245946  0.33199187    -0.09500
C265        C  0.28308103  0.30834650  0.29687070     0.29400
C266        C  0.26162490  0.32500033  0.29497257    -0.21500
C267        C  0.26140152  0.34627187  0.32765717    -0.09500
C268        C  0.28437063  0.35246430  0.36158455     0.29400
F269        F  0.28438336  0.37290357  0.39372543    -0.20000
H270        H  0.32149212  0.33902519  0.39128693     0.17700
H271        H  0.24416452  0.32022874  0.26857323     0.17700
F272        F  0.28111647  0.28653889  0.26521123    -0.20000
C273        C  0.24542347  0.06831099  0.38718848    -0.21500
C274        C  0.24371815  0.09042074  0.35621517    -0.09500
C275        C  0.21883817  0.07383156  0.32364572     0.29400
C276        C  0.19850187  0.03528420  0.32011521    -0.21500
C277        C  0.20278793  0.01292206  0.34911263    -0.09500
C278        C  0.22475728  0.02986697  0.38410597     0.29400
F279        F  0.22855579  0.00936731  0.41384460    -0.20000
H280        H  0.26420820  0.08082034  0.41270416     0.17700
H281        H  0.18203522  0.02318989  0.29286465     0.17700
F282        F  0.21670274  0.09492703  0.29341002    -0.20000
C283        C  0.27374289  0.16316554  0.16037072    -0.21500
C284        C  0.29931532  0.15804939  0.13861993    -0.09500
C285        C  0.33308337  0.16749478  0.15719218     0.29400
C286        C  0.34001994  0.17977408  0.19780195    -0.21500
C287        C  0.31354886  0.18309199  0.22039968    -0.09500
C288        C  0.28076440  0.17585905  0.20061509     0.29400
F289        F  0.25469307  0.17971845  0.22037301    -0.20000
H290        H  0.24774878  0.15644800  0.14643940     0.17700
H291        H  0.36551417  0.18522940  0.21200518     0.17700
F292        F  0.35828562  0.16242540  0.13719138    -0.20000
C293        C  0.25241574  0.25472754  0.46577027    -0.21500
C294        C  0.26947589  0.23355890  0.46851954    -0.09500
C295        C  0.27397337  0.22136538  0.50708430     0.29400
C296        C  0.26380847  0.23240203  0.54259191    -0.21500
C297        C  0.25006520  0.25654525  0.54004027    -0.09500
C298        C  0.24318301  0.26660358  0.50129772     0.29400
F299        F  0.22948871  0.28960592  0.49790107    -0.20000
H300        H  0.24911235  0.26467177  0.43631503     0.17700
H301        H  0.26946952  0.22453661  0.57214785     0.17700
F302        F  0.29021017  0.20063456  0.51047788    -0.20000
C303        C  0.36035202  0.15863039  0.48857363    -0.21500
C304        C  0.38640585  0.19168148  0.46985534    -0.09500
C305        C  0.41821991  0.21644015  0.49150692     0.29400
C306        C  0.42218542  0.20984918  0.53247702    -0.21500
C307        C  0.39440647  0.17858362  0.55267134    -0.09500
C308        C  0.36416020  0.15203752  0.52975174     0.29400
F309        F  0.33711783  0.12086618  0.54748823    -0.20000
H310        H  0.33572684  0.13911040  0.47219658     0.17700
H311        H  0.44632870  0.23025534  0.54884321     0.17700
F312        F  0.44477994  0.24778664  0.47351520    -0.20000
Fe313      Fe  0.35424240  0.68852823  0.34340412     1.65800
Fe314      Fe  0.36290464  0.76163050  0.39427633     1.73200
Fe315      Fe  0.28511500  0.70616299  0.34224248     1.54400
O316        O  0.29210895  0.68945653  0.28496246    -0.81800
O317        O  0.32223953  0.74028933  0.43737103    -0.80100
O318        O  0.34827869  0.69696769  0.28229730    -0.84300
O319        O  0.30338629  0.63961252  0.34272082    -0.79200
O320        O  0.30475638  0.75761327  0.31838738    -0.81000
O321        O  0.38743367  0.73643559  0.42560769    -0.83700
C322        C  0.27113432  0.62998247  0.35483515     0.97100
C323        C  0.31862519  0.69085127  0.26497404     1.04500
O324        O  0.33406577  0.71887005  0.35966032    -1.12700
O325        O  0.40651238  0.78462849  0.35365115    -0.75100
O326        O  0.40838957  0.73330804  0.34304062    -0.78600
O327        O  0.26151279  0.65311475  0.36397485    -0.79300
C328        C  0.42432285  0.76847242  0.34517616     0.96000
O329        O  0.35967025  0.67827538  0.40371670    -0.77300
O330        O  0.34015478  0.79201761  0.36937735    -0.82400
C331        C  0.28879368  0.73082969  0.43262823     0.98600
C332        C  0.31845344  0.78676928  0.33949406     1.04500
O333        O  0.27265709  0.72188055  0.39793296    -0.78100
C334        C  0.37768462  0.70262938  0.43059887     1.02800
Fe335      Fe  0.20643893  0.84049476  0.66839474     1.65800
Fe336      Fe  0.28025798  0.84983824  0.61889474     1.73200
Fe337      Fe  0.22195620  0.76979812  0.66669286     1.54400
O338        O  0.20538002  0.77598080  0.72442041    -0.81800
O339        O  0.26138278  0.81013790  0.57440171    -0.80100
O340        O  0.21405147  0.83287856  0.72933045    -0.84300
O341        O  0.15733253  0.79014691  0.66794115    -0.79200
O342        O  0.27231069  0.78662843  0.69136034    -0.81000
O343        O  0.25524984  0.87404555  0.58627705    -0.83700
C344        C  0.14716913  0.75814638  0.65410949     0.97100
C345        C  0.20742704  0.80248012  0.74551871     1.04500
O346        O  0.23650357  0.82006317  0.65164702    -1.12700
O347        O  0.30188103  0.89326852  0.66014808    -0.75100
O348        O  0.25071133  0.89460044  0.67048283    -0.78600
O349        O  0.16972135  0.74825783  0.64384771    -0.79300
C350        C  0.28562312  0.91088653  0.66895394     0.96000
O351        O  0.19732224  0.84711412  0.60802492    -0.77300
O352        O  0.31012094  0.82721081  0.64574264    -0.82400
C353        C  0.24880885  0.77570295  0.57710309     0.98600
C354        C  0.30315679  0.80329695  0.67379083     1.04500
O355        O  0.23724628  0.75796510  0.61058763    -0.78100
C356        C  0.22160453  0.86432028  0.58093036     1.02800
Fe357      Fe  0.35759712  0.64167839  0.67679414     1.65800
Fe358      Fe  0.42342218  0.63450888  0.72593594     1.73200
Fe359      Fe  0.44444315  0.71345197  0.67512198     1.54400
O360        O  0.42145258  0.70369987  0.61689415    -0.81800
O361        O  0.44512621  0.67546642  0.76863518    -0.80100
O362        O  0.37161182  0.64718473  0.61595930    -0.84300
O363        O  0.35793396  0.69135470  0.67547832    -0.79200
O364        O  0.47934475  0.69746686  0.65321443    -0.81000
O365        O  0.37483019  0.61079343  0.75934067    -0.83700
C366        C  0.38008781  0.72433636  0.68650519     0.97100
C367        C  0.39605868  0.67598417  0.59773927     1.04500
O368        O  0.40883191  0.66339284  0.69235461    -1.12700
O369        O  0.40103819  0.59007871  0.68619204    -0.75100
O370        O  0.34788203  0.58768682  0.67683927    -0.78600
O371        O  0.41350325  0.73578334  0.69427547    -0.79300
C372        C  0.36682481  0.57184343  0.67857706     0.96000
O373        O  0.34306444  0.63673288  0.73722554    -0.77300
O374        O  0.47512131  0.65606687  0.69864942    -0.82400
C375        C  0.46581805  0.71010955  0.76560029     0.98600
C376        C  0.49239143  0.67966458  0.67058576     1.04500
O377        O  0.47122028  0.72765158  0.73199764    -0.78100
C378        C  0.35056436  0.61991808  0.76441251     1.02800
Fe379      Fe  0.15394538  0.78275783  0.00122572     1.65800
Fe380      Fe  0.08660112  0.70878795  0.95220961     1.73200
Fe381      Fe  0.06802852  0.76769082  0.00242280     1.54400
O382        O  0.09260494  0.78422352  0.05927103    -0.81800
O383        O  0.06520207  0.72857312  0.90937355    -0.80100
O384        O  0.14043905  0.77548882  0.06300973    -0.84300
O385        O  0.15397987  0.83252696  0.00123546    -0.79200
O386        O  0.03436822  0.71718989  0.02739920    -0.81000
O387        O  0.13471884  0.73376116  0.91783362    -0.83700
C388        C  0.13204854  0.84269614  0.98817059     0.97100
C389        C  0.11702671  0.78192173  0.07988639     1.04500
O390        O  0.10263372  0.75270913  0.98570603    -1.12700
O391        O  0.10925272  0.68644325  0.99142641    -0.75100
O392        O  0.16267672  0.73785621  0.00184905    -0.78600
O393        O  0.09895484  0.81998654  0.97933995    -0.79300
C394        C  0.14349397  0.70274129  0.99939106     0.96000
O395        O  0.16807644  0.79170373  0.94034693    -0.77300
O396        O  0.03480822  0.67894650  0.98091311    -0.82400
C397        C  0.04460091  0.74219356  0.91319868     0.98600
C398        C  0.01911113  0.68608450  0.00990837     1.04500
O399        O  0.03904888  0.75290639  0.94736361    -0.78100
C400        C  0.15937560  0.76746782  0.91264217     1.02800
Fe401      Fe  0.30424945  0.63414135  0.01033619     1.65800
Fe402      Fe  0.23052668  0.56659342  0.05799098     1.73200
Fe403      Fe  0.28779168  0.54698784  0.00597651     1.54400
O404        O  0.30401276  0.57220696  0.94957702    -0.81800
O405        O  0.24998602  0.54428701  0.09989221    -0.80100
O406        O  0.29702067  0.62142707  0.94873453    -0.84300
O407        O  0.35337769  0.63346064  0.01097499    -0.79200
O408        O  0.23707526  0.51400935  0.98109768    -0.81000
O409        O  0.25536886  0.61460093  0.09300486    -0.83700
C410        C  0.36324710  0.61067539  0.02205471     0.97100
C411        C  0.30211703  0.59763012  0.93049874     1.04500
O412        O  0.27401614  0.58239525  0.02447705    -1.12700
O413        O  0.20850047  0.58971441  0.01922885    -0.75100
O414        O  0.25969215  0.64324923  0.00881395    -0.78600
O415        O  0.34045004  0.57690153  0.02832019    -0.79300
C416        C  0.22470146  0.62390796  0.01030136     0.96000
O417        O  0.31310646  0.64798738  0.07129921    -0.77300
O418        O  0.20047709  0.51500351  0.02898082    -0.82400
C419        C  0.26200763  0.52238147  0.09492589     0.98600
C420        C  0.20661437  0.99904468  0.99943189     1.04500
O421        O  0.27269472  0.51721177  0.06054873    -0.78100
C422        C  0.28881870  0.63939195  0.09858370     1.02800
Fe423      Fe  0.15373093  0.83881545  0.33613696     1.65800
Fe424      Fe  0.14707441  0.90427327  0.28394421     1.73200
Fe425      Fe  0.22609975  0.92551194  0.33422875     1.54400
O426        O  0.21679003  0.90446492  0.39337567    -0.81800
O427        O  0.18776647  0.92560729  0.24123587    -0.80100
O428        O  0.16021722  0.85495466  0.39663841    -0.84300
O429        O  0.20279023  0.83835334  0.33931063    -0.79200
O430        O  0.21204816  0.96265448  0.35389637    -0.81000
O431        O  0.12421201  0.85498931  0.25115426    -0.83700
C432        C  0.23546270  0.85984494  0.32754787     0.97100
C433        C  0.18976562  0.87957545  0.41370145     1.04500
O434        O  0.17567862  0.88996504  0.31853756    -1.12700
O435        O  0.10232310  0.88234607  0.32287902    -0.75100
O436        O  0.10007516  0.82947864  0.33580915    -0.78600
O437        O  0.24665403  0.89267629  0.31663691    -0.79300
C438        C  0.08435452  0.84850318  0.33297837     0.96000
O439        O  0.14849746  0.82240562  0.27586199    -0.77300
O440        O  0.16816388  0.95654336  0.31104514    -0.82400
C441        C  0.22245561  0.94465627  0.24323656     0.98600
C442        C  0.19267713  0.97462231  0.33811713     1.04500
O443        O  0.24033840  0.95004205  0.27647606    -0.78100
C444        C  0.13313017  0.83031381  0.24725870     1.02800
C445        C  0.27811810  0.51900944  0.16713122    -0.21500
C446        C  0.26112024  0.50079001  0.13055256    -0.09500
C447        C  0.23700797  0.96253152  0.13073101     0.29400
C448        C  0.22720281  0.94345865  0.16782246    -0.21500
C449        C  0.24161649  0.96225373  0.20496995    -0.09500
C450        C  0.26888189  0.49975907  0.20422735     0.29400
F451        F  0.28337991  0.51864407  0.23954936    -0.20000
H452        H  0.29661275  0.54863420  0.16727321     0.17700
H453        H  0.20618461  0.91448645  0.16783742     0.17700
F454        F  0.21965587  0.94450845  0.09582896    -0.20000
C455        C  0.09650448  0.80758727  0.18350388    -0.21500
C456        C  0.12576895  0.81127265  0.20739609    -0.09500
C457        C  0.14998099  0.80100055  0.19060940     0.29400
C458        C  0.14634494  0.78997029  0.14949113    -0.21500
C459        C  0.11830854  0.78860581  0.12474046    -0.09500
C460        C  0.09248960  0.79616122  0.14292275     0.29400
F461        F  0.06395107  0.79406038  0.12128616    -0.20000
H462        H  0.07720566  0.81479860  0.19593680     0.17700
H463        H  0.16631852  0.78391686  0.13666089     0.17700
F464        F  0.17859029  0.80405488  0.21293611    -0.20000
C465        C  0.16947902  0.90391844  0.95479300    -0.21500
C466        C  0.14505681  0.88233442  0.98557640    -0.09500
C467        C  0.13548487  0.89932040  0.01614271     0.29400
C468        C  0.15276666  0.93782463  0.01798347    -0.21500
C469        C  0.17981577  0.95991903  0.98927790    -0.09500
C470        C  0.18636302  0.94240329  0.95611952     0.29400
F471        F  0.21098589  0.96240188  0.92648620    -0.20000
H472        H  0.17657444  0.89102522  0.93063440     0.17700
H473        H  0.14711322  0.95026288  0.04382434     0.17700
F474        F  0.11165402  0.87876191  0.04613001    -0.20000
C475        C  0.20073746  0.69930762  0.99321737    -0.21500
C476        C  0.16304940  0.68133994  0.00249457    -0.09500
C477        C  0.14506339  0.64331553  0.01163232     0.29400
C478        C  0.16480028  0.62443340  0.01282184    -0.21500
C479        C  0.20277819  0.64276318  0.00427818    -0.09500
C480        C  0.22024670  0.68050283  0.99371961     0.29400
F481        F  0.25645224  0.69968819  0.98404145    -0.20000
H482        H  0.21533592  0.72824342  0.98484980     0.17700
H483        H  0.15039808  0.59552754  0.02125459     0.17700
F484        F  0.10866947  0.62453316  0.02036331    -0.20000
C485        C  0.46294433  0.67188018  0.04914291    -0.21500
C486        C  0.48017193  0.65985871  0.02125036    -0.09500
C487        C  0.45800489  0.62703492  0.99923338     0.29400
C488        C  0.41956208  0.60918971  0.00210899    -0.21500
C489        C  0.40282246  0.62412843  0.02631690    -0.09500
C490        C  0.42478595  0.65471619  0.05105396     0.29400
F491        F  0.40934464  0.66915607  0.07556015    -0.20000
H492        H  0.47890002  0.69658468  0.06727008     0.17700
H493        H  0.40286980  0.58528936  0.98308551     0.17700
F494        F  0.47315040  0.61369455  0.97277264    -0.20000
C495        C  0.48703984  0.72780583  0.87723248    -0.21500
C496        C  0.02527577  0.74378132  0.87645075    -0.09500
C497        C  0.04399065  0.75596122  0.83899272     0.29400
C498        C  0.02428874  0.74913775  0.80239868    -0.21500
C499        C  0.48582230  0.72932342  0.80286721    -0.09500
C500        C  0.46730498  0.72014041  0.84061092     0.29400
F501        F  0.43003151  0.70090487  0.84178634    -0.20000
H502        H  0.47224430  0.71824032  0.90585305     0.17700
H503        H  0.03893652  0.75602699  0.77358440     0.17700
F504        F  0.08112926  0.77222874  0.83765597    -0.20000
C505        C  0.32407778  0.57889089  0.82443789    -0.21500
C506        C  0.33138533  0.61113643  0.80380927    -0.09500
C507        C  0.32410539  0.63657355  0.82318519     0.29400
C508        C  0.31263264  0.63115866  0.86395015    -0.21500
C509        C  0.30791975  0.60015049  0.88571155    -0.09500
C510        C  0.31195366  0.57304957  0.86478050     0.29400
F511        F  0.30563707  0.54148107  0.88354792    -0.20000
H512        H  0.32886528  0.55865219  0.80963881     0.17700
H513        H  0.30924049  0.65217631  0.87899863     0.17700
F514        F  0.33091108  0.66806637  0.80391351    -0.20000
C515        C  0.19239981  0.76226015  0.80717499    -0.21500
C516        C  0.20017614  0.79628135  0.79010681    -0.09500
C517        C  0.19840653  0.82239961  0.81552487     0.29400
C518        C  0.18723420  0.81364158  0.85631401    -0.21500
C519        C  0.17727716  0.77871889  0.87229814    -0.09500
C520        C  0.18088815  0.75343770  0.84764057     0.29400
F521        F  0.17254119  0.71981846  0.86236251    -0.20000
H522        H  0.19399032  0.74169098  0.78880452     0.17700
H523        H  0.18449694  0.83350350  0.87477746     0.17700
F524        F  0.20588682  0.85571990  0.80073821    -0.20000
C525        C  0.09144565  0.70597874  0.68455336    -0.21500
C526        C  0.10774127  0.73124778  0.65238715    -0.09500
C527        C  0.08557639  0.73395264  0.62223860     0.29400
C528        C  0.04738768  0.71338585  0.62585148    -0.21500
C529        C  0.03074724  0.69052165  0.66018491    -0.09500
C530        C  0.05321026  0.68573702  0.68862881     0.29400
F531        F  0.03867810  0.66454859  0.72251902    -0.20000
H532        H  0.10843667  0.70391305  0.70817928     0.17700
H533        H  0.03093262  0.71758277  0.60331187     0.17700
F534        F  0.10088807  0.75816810  0.59077445    -0.20000
C535        C  0.34576066  0.97183612  0.67070902    -0.21500
C536        C  0.30718261  0.95194227  0.67428547    -0.09500
C537        C  0.28902133  0.97217652  0.67882176     0.29400
C538        C  0.30871315  0.51072699  0.67890524    -0.21500
C539        C  0.34715747  0.53071310  0.67505985    -0.09500
C540        C  0.36560782  0.51071947  0.67139988     0.29400
F541        F  0.40271412  0.52858969  0.66805340    -0.20000
H542        H  0.36064252  0.95730986  0.66684023     0.17700
H543        H  0.29353591  0.52497678  0.68264780     0.17700
F544        F  0.25195560  0.95495265  0.68258897    -0.20000
C545        C  0.37955334  0.78097302  0.66380962    -0.21500
C546        C  0.36604134  0.74997844  0.68957053    -0.09500
C547        C  0.33604166  0.74116083  0.71481961     0.29400
C548        C  0.31846653  0.76166544  0.71268089    -0.21500
C549        C  0.32942936  0.79058146  0.68403195    -0.09500
C550        C  0.36120912  0.80099802  0.66064306     0.29400
F551        F  0.37299834  0.82858608  0.63264316    -0.20000
H552        H  0.40271982  0.78804917  0.64404088     0.17700
H553        H  0.29441042  0.75290515  0.73152300     0.17700
F554        F  0.32259038  0.71151628  0.74018832    -0.20000
C555        C  0.17650833  0.84616239  0.52384343    -0.21500
C556        C  0.21049020  0.87200606  0.54103558    -0.09500
C557        C  0.23525501  0.90263262  0.51773558     0.29400
C558        C  0.22712320  0.90599004  0.47710939    -0.21500
C559        C  0.19438118  0.87864561  0.45864756    -0.09500
C560        C  0.16848065  0.84922091  0.48293003     0.29400
F561        F  0.13635044  0.82226791  0.46678809    -0.20000
H562        H  0.15706297  0.82228526  0.54131490     0.17700
H563        H  0.24739114  0.92934131  0.45962241     0.17700
F564        F  0.26786042  0.92876955  0.53383339    -0.20000
C565        C  0.48536072  0.77327277  0.35320143    -0.21500
C566        C  0.46521382  0.79016089  0.34157411    -0.09500
C567        C  0.48476029  0.82751408  0.32957779     0.29400
C568        C  0.02347654  0.84683691  0.32800618    -0.21500
C569        C  0.04357461  0.82955670  0.33902589    -0.08900
C570        C  0.02375242  0.79253523  0.35232747     0.29400
F571        F  0.04130144  0.77450806  0.36445464    -0.20000
H572        H  0.47131054  0.74493842  0.36375776     0.17700
H573        H  0.03766402  0.87512937  0.31736977     0.17700
F574        F  0.46653881  0.84508856  0.31835313    -0.20000
C575        C  0.30584988  0.83574908  0.36366717    -0.21500
C576        C  0.30454182  0.81245980  0.33199176    -0.09500
C577        C  0.28308179  0.80834704  0.29687050     0.29400
C578        C  0.26162555  0.82500078  0.29497243    -0.21500
C579        C  0.26140187  0.84627198  0.32765722    -0.09500
C580        C  0.28437079  0.85246420  0.36158471     0.29400
F581        F  0.28438332  0.87290321  0.39372576    -0.20000
H582        H  0.32149230  0.83902517  0.39128704     0.17700
H583        H  0.24416534  0.82022938  0.26857296     0.17700
F584        F  0.28111762  0.78653980  0.26521084    -0.20000
C585        C  0.24542384  0.56831133  0.38718824    -0.21500
C586        C  0.24371847  0.59042113  0.35621500    -0.09500
C587        C  0.21883830  0.57383199  0.32364568     0.29400
C588        C  0.19850188  0.53528465  0.32011521    -0.21500
C589        C  0.20278791  0.51292247  0.34911257    -0.09500
C590        C  0.22475745  0.52986733  0.38410579     0.29400
F591        F  0.22855590  0.50936754  0.41384432    -0.20000
H592        H  0.26420871  0.58082064  0.41270383     0.17700
H593        H  0.18203514  0.52319035  0.29286467     0.17700
F594        F  0.21670275  0.59492748  0.29341008    -0.20000
C595        C  0.27374406  0.66316624  0.16037027    -0.21500
C596        C  0.29931631  0.65804962  0.13861976    -0.09500
C597        C  0.33308422  0.66749472  0.15719216     0.29400
C598        C  0.34002075  0.67977411  0.19780189    -0.21500
C599        C  0.31354978  0.68309237  0.22039944    -0.09500
C600        C  0.28076554  0.67585982  0.20061461     0.29400
F601        F  0.25469439  0.67971968  0.22037231    -0.20000
H602        H  0.24775012  0.65644898  0.14643872     0.17700
H603        H  0.36551488  0.68522920  0.21200530     0.17700
F604        F  0.35828631  0.66242501  0.13719147    -0.20000
C605        C  0.25241600  0.75472723  0.46577024    -0.21500
C606        C  0.26947655  0.73355898  0.46851933    -0.09500
C607        C  0.27397440  0.72136562  0.50708403     0.29400
C608        C  0.26380945  0.73240206  0.54259174    -0.21500
C609        C  0.25006580  0.75654496  0.54004028    -0.09500
C610        C  0.24318326  0.76660312  0.50129781     0.29400
F611        F  0.22948877  0.78960529  0.49790135    -0.20000
H612        H  0.24911235  0.76467136  0.43631504     0.17700
H613        H  0.26947085  0.72453685  0.57214759     0.17700
F614        F  0.29021169  0.70063524  0.51047752    -0.20000
C615        C  0.36035273  0.65863108  0.48857362    -0.21500
C616        C  0.38640658  0.69168211  0.46985528    -0.09500
C617        C  0.41822064  0.71644083  0.49150685     0.29400
C618        C  0.42218620  0.70984986  0.53247693    -0.21500
C619        C  0.39440728  0.67858428  0.55267126    -0.09500
C620        C  0.36416093  0.65203825  0.52975172     0.29400
F621        F  0.33711861  0.62086688  0.54748822    -0.20000
H622        H  0.33572755  0.63911108  0.47219658     0.17700
H623        H  0.44632952  0.73025602  0.54884312     0.17700
F624        F  0.44478058  0.74778739  0.47351517    -0.20000
Fe625      Fe  0.85424201  0.18852798  0.34340408     1.65800
Fe626      Fe  0.86290410  0.26162985  0.39427706     1.73200
Fe627      Fe  0.78511460  0.20616273  0.34224292     1.54400
O628        O  0.79210849  0.18945644  0.28496278    -0.81800
O629        O  0.82223890  0.24028833  0.43737169    -0.80100
O630        O  0.84827830  0.19696780  0.28229733    -0.84300
O631        O  0.80338587  0.13961229  0.34272057    -0.79200
O632        O  0.80475590  0.25761307  0.31838814    -0.81000
O633        O  0.88743303  0.23643476  0.42560821    -0.83700
C634        C  0.77113395  0.12998220  0.35483509     0.97100
C635        C  0.81862472  0.19085128  0.26497422     1.04500
O636        O  0.83406536  0.21886967  0.35966069    -1.12700
O637        O  0.90651188  0.28462813  0.35365194    -0.75100
O638        O  0.90838918  0.23330781  0.34304073    -0.78600
O639        O  0.76151248  0.15311447  0.36397511    -0.79300
C640        C  0.92432242  0.26847218  0.34517659     0.96000
O641        O  0.85966986  0.17827475  0.40371655    -0.77300
O642        O  0.84015428  0.29201710  0.36937832    -0.82400
C643        C  0.78879318  0.23082909  0.43262878     0.98600
C644        C  0.81845299  0.28676896  0.33949504     1.04500
O645        O  0.77265669  0.22188015  0.39793346    -0.78100
C646        C  0.87768407  0.20262854  0.43059898     1.02800
Fe647      Fe  0.70643837  0.34049515  0.66839466     1.65800
Fe648      Fe  0.78025733  0.34983838  0.61889474     1.73200
Fe649      Fe  0.72195508  0.26979824  0.66669263     1.54400
O650        O  0.70537894  0.27598096  0.72442021    -0.81800
O651        O  0.76138220  0.31013811  0.57440168    -0.80100
O652        O  0.71405102  0.33287895  0.72933035    -0.84300
O653        O  0.65733181  0.29014734  0.66794122    -0.79200
O654        O  0.77230942  0.28662832  0.69136025    -0.81000
O655        O  0.75524929  0.37404583  0.58627707    -0.83700
C656        C  0.64716821  0.25814681  0.65410940     0.97100
C657        C  0.70742644  0.30248046  0.74551858     1.04500
O658        O  0.73650280  0.32006337  0.65164686    -1.12700
O659        O  0.80188047  0.39326866  0.66014813    -0.75100
O660        O  0.75071091  0.39460088  0.67048262    -0.78600
O661        O  0.66972032  0.24825824  0.64384721    -0.79300
C662        C  0.78562271  0.41088684  0.66895386     0.96000
O663        O  0.69732166  0.34711447  0.60802487    -0.77300
O664        O  0.81011999  0.32721063  0.64574269    -0.82400
C665        C  0.74880818  0.27570313  0.57710306     0.98600
C666        C  0.80315555  0.30329663  0.67379082     1.04500
O667        O  0.73724524  0.25796522  0.61058751    -0.78100
C668        C  0.72160399  0.36432058  0.58093032     1.02800
Fe669      Fe  0.85759602  0.14167762  0.67679425     1.65800
Fe670      Fe  0.92342131  0.13450868  0.72593629     1.73200
Fe671      Fe  0.94444179  0.21345160  0.67512219     1.54400
O672        O  0.92145137  0.20369923  0.61689422    -0.81800
O673        O  0.94512518  0.17546627  0.76863550    -0.80100
O674        O  0.87161078  0.14718396  0.61595944    -0.84300
O675        O  0.85793244  0.19135371  0.67547828    -0.79200
O676        O  0.97934376  0.19746689  0.65321490    -0.81000
O677        O  0.87482927  0.11079301  0.75934096    -0.83700
C678        C  0.88008606  0.22433543  0.68650513     0.97100
C679        C  0.89605762  0.17598336  0.59773936     1.04500
O680        O  0.90883081  0.16339240  0.69235487    -1.12700
O681        O  0.90103763  0.09007847  0.68619240    -0.75100
O682        O  0.84788129  0.08768616  0.67683953    -0.78600
O683        O  0.91350154  0.23578264  0.69427549    -0.79300
C684        C  0.86682427  0.07184299  0.67857736     0.96000
O685        O  0.84306333  0.13673218  0.73722556    -0.77300
O686        O  0.97512050  0.15606700  0.69864992    -0.82400
C687        C  0.96581679  0.21010943  0.76560057     0.98600
C688        C  0.99239057  0.17966475  0.67058629     1.04500
O689        O  0.97121878  0.22765143  0.73199793    -0.78100
C690        C  0.85056329  0.11991750  0.76441262     1.02800
Fe691      Fe  0.65394502  0.28275779  0.00122570     1.65800
Fe692      Fe  0.58660077  0.20878825  0.95220921     1.73200
Fe693      Fe  0.56802836  0.26769105  0.00242263     1.54400
O694        O  0.59260490  0.28422395  0.05927078    -0.81800
O695        O  0.56520183  0.22857356  0.90937318    -0.80100
O696        O  0.64043846  0.27548842  0.06300964    -0.84300
O697        O  0.65397960  0.33252702  0.00123581    -0.79200
O698        O  0.53436812  0.21719021  0.02739927    -0.81000
O699        O  0.63471862  0.23376160  0.91783330    -0.83700
C700        C  0.63204838  0.34269623  0.98817061     0.97100
C701        C  0.61702643  0.28192184  0.07988622     1.04500
O702        O  0.60263340  0.25270923  0.98570586    -1.12700
O703        O  0.60925218  0.18644329  0.99142595    -0.75100
O704        O  0.66267629  0.23785612  0.00184870    -0.78600
O705        O  0.59895482  0.31998662  0.97933942    -0.79300
C706        C  0.64349344  0.20274122  0.99939055     0.96000
O707        O  0.66807633  0.29170404  0.94034698    -0.77300
O708        O  0.53480784  0.17894695  0.98091275    -0.82400
C709        C  0.54460044  0.24219372  0.91319855     0.98600
C710        C  0.51911089  0.18608489  0.00990825     1.04500
O711        O  0.53904849  0.25290644  0.94736358    -0.78100
C712        C  0.65937552  0.26746825  0.91264208     1.02800
Fe713      Fe  0.80424893  0.13414159  0.01033619     1.65800
Fe714      Fe  0.73052610  0.06659343  0.05799087     1.73200
Fe715      Fe  0.78779170  0.04698832  0.00597688     1.54400
O716        O  0.80401272  0.07220731  0.94957731    -0.81800
O717        O  0.74998537  0.04428712  0.09989228    -0.80100
O718        O  0.79702024  0.12142719  0.94873463    -0.84300
O719        O  0.85337740  0.13346123  0.01097505    -0.79200
O720        O  0.73707543  0.01400957  0.98109791    -0.81000
O721        O  0.75536807  0.11460097  0.09300484    -0.83700
C722        C  0.86324692  0.11067613  0.02205507     0.97100
C723        C  0.80211664  0.09763023  0.93049892     1.04500
O724        O  0.77401575  0.08239548  0.02447715    -1.12700
O725        O  0.70849984  0.08971427  0.01922859    -0.75100
O726        O  0.75969145  0.14324918  0.00881366    -0.78600
O727        O  0.84044994  0.07690230  0.02832084    -0.79300
C728        C  0.72470074  0.12390777  0.01030091     0.96000
O729        O  0.81310570  0.14798767  0.07129924    -0.77300
O730        O  0.70047677  0.01500347  0.02898061    -0.82400
C731        C  0.76200732  0.02238186  0.09492615     0.98600
C732        C  0.70661437  0.49904469  0.99943215     1.04500
O733        O  0.77269478  0.01721236  0.06054913    -0.78100
C734        C  0.78881789  0.13939209  0.09858373     1.02800
Fe735      Fe  0.65373056  0.33881555  0.33613684     1.65800
Fe736      Fe  0.64707434  0.40427365  0.28394423     1.73200
Fe737      Fe  0.72609977  0.42551186  0.33422840     1.54400
O738        O  0.71678979  0.40446508  0.39337547    -0.81800
O739        O  0.68776647  0.42560791  0.24123587    -0.80100
O740        O  0.66021689  0.35495489  0.39663824    -0.84300
O741        O  0.70278963  0.33835307  0.33931084    -0.79200
O742        O  0.71204890  0.46265508  0.35389554    -0.81000
O743        O  0.62421205  0.35498980  0.25115404    -0.83700
C744        C  0.73546215  0.35984448  0.32754820     0.97100
C745        C  0.68976531  0.37957569  0.41370126     1.04500
O746        O  0.67567847  0.38996521  0.31853743    -1.12700
O747        O  0.60232287  0.38234623  0.32287896    -0.75100
O748        O  0.60007482  0.32947874  0.33580883    -0.78600
O749        O  0.74665362  0.39267576  0.31663694    -0.79300
C750        C  0.58435421  0.34850328  0.33297813     0.96000
O751        O  0.64849710  0.32240574  0.27586186    -0.77300
O752        O  0.66816374  0.45654366  0.31104549    -0.82400
C753        C  0.72245567  0.44465622  0.24323628     0.98600
C754        C  0.69267744  0.47462272  0.33811701     1.04500
O755        O  0.74033859  0.45004155  0.27647558    -0.78100
C756        C  0.63313001  0.33031414  0.24725852     1.02800
C757        C  0.77811720  0.01901010  0.16713176    -0.21500
C758        C  0.76112005  0.00079053  0.13055292    -0.09500
C759        C  0.73700740  0.46253122  0.13073070     0.29400
C760        C  0.72720216  0.44345839  0.16782216    -0.21500
C761        C  0.74161652  0.46225336  0.20496954    -0.09500
C762        C  0.76888103  0.99975968  0.20422786     0.29400
F763        F  0.78337816  0.01864480  0.23955001    -0.20000
H764        H  0.79661126  0.04863500  0.16727391     0.17700
H765        H  0.70618340  0.41448643  0.16783724     0.17700
F766        F  0.71965459  0.44450831  0.09582888    -0.20000
C767        C  0.59650451  0.30758798  0.18350354    -0.21500
C768        C  0.62576877  0.31127300  0.20739589    -0.09500
C769        C  0.64998054  0.30100045  0.19060939     0.29400
C770        C  0.64634449  0.28997017  0.14949110    -0.21500
C771        C  0.61830835  0.28860610  0.12474027    -0.09500
C772        C  0.59248965  0.29616193  0.14292240     0.29400
F773        F  0.56395142  0.29406161  0.12128562    -0.20000
H774        H  0.57720590  0.31479959  0.19593636     0.17700
H775        H  0.66631788  0.28391638  0.13666095     0.17700
F776        F  0.67858958  0.30405442  0.21293633    -0.20000
C777        C  0.66947775  0.40391851  0.95479257    -0.21500
C778        C  0.64505652  0.38233450  0.98557674    -0.09500
C779        C  0.63548551  0.39932047  0.01614399     0.29400
C780        C  0.65276735  0.43782468  0.01798484    -0.21500
C781        C  0.67981554  0.45991908  0.98927842    -0.09500
C782        C  0.68636180  0.44240338  0.95611927     0.29400
F783        F  0.71098383  0.46240201  0.92648526    -0.20000
H784        H  0.67657241  0.39102531  0.93063333     0.17700
H785        H  0.64711479  0.45026292  0.04382641     0.17700
F786        F  0.61165573  0.37876202  0.04613213    -0.20000
C787        C  0.70073626  0.19930672  0.99321368    -0.21500
C788        C  0.66304875  0.18133975  0.00249369    -0.09500
C789        C  0.64506307  0.14331588  0.01163407     0.29400
C790        C  0.66479985  0.12443363  0.01282352    -0.21500
C791        C  0.70277730  0.14276277  0.00427732    -0.09500
C792        C  0.72024536  0.18050175  0.99371592     0.29400
F793        F  0.75645027  0.19968618  0.98403473    -0.20000
H794        H  0.71533431  0.22824200  0.98484393     0.17700
H795        H  0.65039805  0.09552830  0.02125842     0.17700
F796        F  0.60866967  0.12453422  0.02036786    -0.20000
C797        C  0.96294428  0.17188068  0.04914297    -0.21500
C798        C  0.98017170  0.15985924  0.02125008    -0.09500
C799        C  0.95800449  0.12703557  0.99923302     0.29400
C800        C  0.91956171  0.10919053  0.00210871    -0.21500
C801        C  0.90282229  0.12412919  0.02631701    -0.09500
C802        C  0.92478590  0.15471671  0.05105427     0.29400
F803        F  0.90934467  0.16915648  0.07556075    -0.20000
H804        H  0.97890008  0.19658505  0.06727026     0.17700
H805        H  0.90286933  0.08529032  0.98308519     0.17700
F806        F  0.97314976  0.11369499  0.97277225    -0.20000
C807        C  0.98703916  0.22780563  0.87723268    -0.21500
C808        C  0.52527494  0.24378126  0.87645082    -0.09500
C809        C  0.54398955  0.25596146  0.83899270     0.29400
C810        C  0.52428743  0.24913792  0.80239880    -0.21500
C811        C  0.98582115  0.22932337  0.80286742    -0.09500
C812        C  0.96730407  0.22014012  0.84061126     0.29400
F813        F  0.93003061  0.20090444  0.84178696    -0.20000
H814        H  0.97224381  0.21824005  0.90585334     0.17700
H815        H  0.53893505  0.25602736  0.77358447     0.17700
F816        F  0.58112817  0.27222922  0.83765566    -0.20000
C817        C  0.82407608  0.07889014  0.82443782    -0.21500
C818        C  0.83138415  0.11113591  0.80380930    -0.09500
C819        C  0.82410480  0.13657337  0.82318533     0.29400
C820        C  0.81263216  0.13115865  0.86395033    -0.21500
C821        C  0.80791897  0.10015033  0.88571169    -0.09500
C822        C  0.81195220  0.07304907  0.86478055     0.29400
F823        F  0.80563506  0.04148037  0.88354794    -0.20000
H824        H  0.82886309  0.05865118  0.80963864     0.17700
H825        H  0.80924048  0.15217651  0.87899888     0.17700
F826        F  0.83091114  0.16806648  0.80391381    -0.20000
C827        C  0.69239975  0.26226071  0.80717492    -0.21500
C828        C  0.70017590  0.29628185  0.79010674    -0.09500
C829        C  0.69840644  0.32240017  0.81552484     0.29400
C830        C  0.68723424  0.31364216  0.85631404    -0.21500
C831        C  0.67727719  0.27871943  0.87229812    -0.09500
C832        C  0.68088818  0.25343826  0.84764053     0.29400
F833        F  0.67254148  0.21981911  0.86236251    -0.20000
H834        H  0.69399034  0.24169160  0.78880446     0.17700
H835        H  0.68449707  0.33350409  0.87477755     0.17700
F836        F  0.70588689  0.35572054  0.80073822    -0.20000
C837        C  0.59144487  0.20597943  0.68455389    -0.21500
C838        C  0.60774030  0.23124823  0.65238742    -0.09500
C839        C  0.58557522  0.23395268  0.62223881     0.29400
C840        C  0.54738652  0.21338572  0.62585186    -0.21500
C841        C  0.53074628  0.19052173  0.66018548    -0.09500
C842        C  0.55320950  0.18573752  0.68862946     0.29400
F843        F  0.53867758  0.16454948  0.72251997    -0.20000
H844        H  0.60843600  0.20391404  0.70817987     0.17700
H845        H  0.53093127  0.21758225  0.60331213     0.17700
F846        F  0.60088668  0.25816768  0.59077421    -0.20000
C847        C  0.84576051  0.47183626  0.67070935    -0.21500
C848        C  0.80718242  0.45194262  0.67428540    -0.09500
C849        C  0.78902134  0.47217711  0.67882117     0.29400
C850        C  0.80871298  0.01072634  0.67890645    -0.21500
C851        C  0.84715720  0.03071269  0.67506022    -0.09500
C852        C  0.86560777  0.01071934  0.67139953     0.29400
F853        F  0.90271400  0.02858983  0.66805218    -0.20000
H854        H  0.86064226  0.45730982  0.66684088     0.17700
H855        H  0.79353563  0.02497595  0.68264962     0.17700
F856        F  0.75195557  0.45495343  0.68258775    -0.20000
C857        C  0.87955178  0.28097230  0.66380995    -0.21500
C858        C  0.86603934  0.24997732  0.68957030    -0.09500
C859        C  0.83603931  0.24115942  0.71481894     0.29400
C860        C  0.81846434  0.26166418  0.71268029    -0.21500
C861        C  0.82942774  0.29058070  0.68403192    -0.09500
C862        C  0.86120778  0.30099750  0.66064349     0.29400
F863        F  0.87299768  0.32858621  0.63264435    -0.20000
H864        H  0.90271861  0.28804878  0.64404165     0.17700
H865        H  0.79440795  0.25290368  0.73152200     0.17700
F866        F  0.82258757  0.21151450  0.74018711    -0.20000
C867        C  0.67650785  0.34616275  0.52384333    -0.21500
C868        C  0.71048973  0.37200636  0.54103550    -0.09500
C869        C  0.73525471  0.40263271  0.51773539     0.29400
C870        C  0.72712296  0.40599019  0.47710918    -0.21500
C871        C  0.69438085  0.37864589  0.45864738    -0.09500
C872        C  0.66848030  0.34922122  0.48292986     0.29400
F873        F  0.63635008  0.32226824  0.46678797    -0.20000
H874        H  0.65706239  0.32228569  0.54131479     0.17700
H875        H  0.74739101  0.42934137  0.45962224     0.17700
F876        F  0.76786022  0.42876949  0.53383314    -0.20000
C877        C  0.98536046  0.27327272  0.35320138    -0.21500
C878        C  0.96521342  0.29016078  0.34157442    -0.09500
C879        C  0.98475981  0.32751400  0.32957816     0.29400
C880        C  0.52347607  0.34683689  0.32800624    -0.21500
C881        C  0.54357425  0.32955673  0.33902571    -0.08900
C882        C  0.52375210  0.29253525  0.35232733     0.29400
F883        F  0.54130119  0.27450814  0.36445436    -0.20000
H884        H  0.97131038  0.24493832  0.36375759     0.17700
H885        H  0.53766348  0.37512939  0.31736991     0.17700
F886        F  0.96653823  0.34508842  0.31835372    -0.20000
C887        C  0.80584819  0.33574761  0.36366909    -0.21500
C888        C  0.80454135  0.31245949  0.33199301    -0.09500
C889        C  0.78308241  0.30834770  0.29687106     0.29400
C890        C  0.76162617  0.32500141  0.29497274    -0.21500
C891        C  0.76140124  0.34627144  0.32765810    -0.09500
C892        C  0.78436899  0.35246261  0.36158647     0.29400
F893        F  0.78438033  0.37290049  0.39372807    -0.20000
H894        H  0.82148968  0.33902282  0.39128947     0.17700
H895        H  0.74416690  0.32023087  0.26857258     0.17700
F896        F  0.78111946  0.28654155  0.26521080    -0.20000
C897        C  0.74542297  0.06831103  0.38718829    -0.21500
C898        C  0.74371807  0.09042085  0.35621474    -0.09500
C899        C  0.71883845  0.07383170  0.32364497     0.29400
C900        C  0.69850207  0.03528434  0.32011446    -0.21500
C901        C  0.70278760  0.01292215  0.34911229    -0.09500
C902        C  0.72475659  0.02986702  0.38410582     0.29400
F903        F  0.72855461  0.00936726  0.41384470    -0.20000
H904        H  0.76420745  0.08082028  0.41270420     0.17700
H905        H  0.68203589  0.02319010  0.29286367     0.17700
F906        F  0.71670350  0.09492712  0.29340888    -0.20000
C907        C  0.77374305  0.16316582  0.16037073    -0.21500
C908        C  0.79931543  0.15804961  0.13861991    -0.09500
C909        C  0.83308347  0.16749492  0.15719213     0.29400
C910        C  0.84002009  0.17977426  0.19780187    -0.21500
C911        C  0.81354907  0.18309227  0.22039965    -0.09500
C912        C  0.78076460  0.17585936  0.20061508     0.29400
F913        F  0.75469339  0.17971898  0.22037298    -0.20000
H914        H  0.74774892  0.15644830  0.14643940     0.17700
H915        H  0.86551439  0.18522964  0.21200504     0.17700
F916        F  0.85828572  0.16242566  0.13719115    -0.20000
C917        C  0.75241603  0.25472746  0.46577035    -0.21500
C918        C  0.76947616  0.23355880  0.46851974    -0.09500
C919        C  0.77397361  0.22136530  0.50708450     0.29400
C920        C  0.76380863  0.23240193  0.54259206    -0.21500
C921        C  0.75006536  0.25654517  0.54004034    -0.09500
C922        C  0.74318327  0.26660354  0.50129778     0.29400
F923        F  0.72948928  0.28960614  0.49790105    -0.20000
H924        H  0.74911272  0.26467169  0.43631512     0.17700
H925        H  0.76946960  0.22453647  0.57214797     0.17700
F926        F  0.79021025  0.20063432  0.51047815    -0.20000
C927        C  0.86035184  0.15863012  0.48857361    -0.21500
C928        C  0.88640595  0.19168097  0.46985520    -0.09500
C929        C  0.91822020  0.21643941  0.49150666     0.29400
C930        C  0.92218556  0.20984851  0.53247682    -0.21500
C931        C  0.89440638  0.17858322  0.55267127    -0.09500
C932        C  0.86415991  0.15203728  0.52975174     0.29400
F933        F  0.83711729  0.12086614  0.54748829    -0.20000
H934        H  0.83572648  0.13911030  0.47219661     0.17700
H935        H  0.94632896  0.23025456  0.54884298     0.17700
F936        F  0.94478041  0.24778576  0.47351487    -0.20000
Fe937      Fe  0.85424232  0.68852830  0.34340428     1.65800
Fe938      Fe  0.86290450  0.76163070  0.39427613     1.73200
Fe939      Fe  0.78511481  0.70616294  0.34224249     1.54400
O940        O  0.79210885  0.68945652  0.28496247    -0.81800
O941        O  0.82223946  0.74028979  0.43737088    -0.80100
O942        O  0.84827857  0.69696765  0.28229739    -0.84300
O943        O  0.80338626  0.63961261  0.34272117    -0.79200
O944        O  0.80475587  0.75761307  0.31838728    -0.81000
O945        O  0.88743350  0.73643584  0.42560774    -0.83700
C946        C  0.77113425  0.62998250  0.35483538     0.97100
C947        C  0.81862511  0.69085126  0.26497409     1.04500
O948        O  0.83406563  0.71887010  0.35966036    -1.12700
O949        O  0.90651217  0.78462847  0.35365091    -0.75100
O950        O  0.90838947  0.73330806  0.34304069    -0.78600
O951        O  0.76151262  0.65311474  0.36397488    -0.79300
C952        C  0.92432271  0.76847244  0.34517609     0.96000
O953        O  0.85967024  0.67827558  0.40371689    -0.77300
O954        O  0.84015468  0.79201775  0.36937681    -0.82400
C955        C  0.78879357  0.73082996  0.43262812     0.98600
C956        C  0.81845317  0.78676926  0.33949365     1.04500
O957        O  0.77265687  0.72188053  0.39793293    -0.78100
C958        C  0.87768453  0.70262966  0.43059902     1.02800
Fe959      Fe  0.70643891  0.84049476  0.66839483     1.65800
Fe960      Fe  0.78025793  0.84983823  0.61889476     1.73200
Fe961      Fe  0.72195615  0.76979811  0.66669288     1.54400
O962        O  0.70538000  0.77598080  0.72442046    -0.81800
O963        O  0.76138276  0.81013791  0.57440173    -0.80100
O964        O  0.71405146  0.83287856  0.72933056    -0.84300
O965        O  0.65733251  0.79014691  0.66794122    -0.79200
O966        O  0.77231060  0.78662839  0.69136034    -0.81000
O967        O  0.75524977  0.87404553  0.58627707    -0.83700
C968        C  0.64716909  0.75814638  0.65410952     0.97100
C969        C  0.70742704  0.80248012  0.74551878     1.04500
O970        O  0.73650354  0.82006317  0.65164706    -1.12700
O971        O  0.80188100  0.89326849  0.66014812    -0.75100
O972        O  0.75071133  0.89460044  0.67048295    -0.78600
O973        O  0.66972130  0.74825783  0.64384772    -0.79300
C974        C  0.78562313  0.91088649  0.66895410     0.96000
O975        O  0.69732219  0.84711414  0.60802501    -0.77300
O976        O  0.81012086  0.82721077  0.64574264    -0.82400
C977        C  0.74880882  0.77570296  0.57710310     0.98600
C978        C  0.80315668  0.80329689  0.67379082     1.04500
O979        O  0.73724625  0.75796510  0.61058764    -0.78100
C980        C  0.72160449  0.86432032  0.58093043     1.02800
Fe981      Fe  0.85759714  0.64167851  0.67679416     1.65800
Fe982      Fe  0.92342220  0.63450891  0.72593576     1.73200
Fe983      Fe  0.94444321  0.71345214  0.67512204     1.54400
O984        O  0.92145269  0.70370013  0.61689423    -0.81800
O985        O  0.94512632  0.67546635  0.76863512    -0.80100
O986        O  0.87161191  0.64718495  0.61595933    -0.84300
O987        O  0.85793400  0.69135481  0.67547836    -0.79200
O988        O  0.97934487  0.69746714  0.65321444    -0.81000
O989        O  0.87483017  0.61079339  0.75934045    -0.83700
C990        C  0.88008782  0.72433645  0.68650533     0.97100
C991        C  0.89605879  0.67598442  0.59773935     1.04500
O992        O  0.90883196  0.66339296  0.69235454    -1.12700
O993        O  0.90103816  0.59007878  0.68619175    -0.75100
O994        O  0.84788195  0.58768684  0.67683929    -0.78600
O995        O  0.91350328  0.73578344  0.69427558    -0.79300
C996        C  0.86682475  0.57184347  0.67857691     0.96000
O997        O  0.84306456  0.63673306  0.73722559    -0.77300
O998        O  0.97512139  0.65606706  0.69864933    -0.82400
C999        C  0.96581800  0.71010951  0.76560035     0.98600
C1000       C  0.99239154  0.67966484  0.67058575     1.04500
O1001       O  0.97122022  0.72765164  0.73199776    -0.78100
C1002       C  0.85056442  0.61991814  0.76441245     1.02800
Fe1003     Fe  0.65394543  0.78275778  0.00122587     1.65800
Fe1004     Fe  0.58660125  0.70878796  0.95220961     1.73200
Fe1005     Fe  0.56802862  0.76769087  0.00242270     1.54400
O1006       O  0.59260490  0.78422346  0.05927102    -0.81800
O1007       O  0.56520224  0.72857309  0.90937346    -0.80100
O1008       O  0.64043889  0.77548858  0.06300981    -0.84300
O1009       O  0.65398002  0.83252698  0.00123570    -0.79200
O1010       O  0.53436815  0.71718992  0.02739904    -0.81000
O1011       O  0.63471904  0.73376116  0.91783367    -0.83700
C1012       C  0.63204875  0.84269617  0.98817067     0.97100
C1013       C  0.61702659  0.78192157  0.07988642     1.04500
O1014       O  0.60263380  0.75270913  0.98570605    -1.12700
O1015       O  0.60925278  0.68644324  0.99142644    -0.75100
O1016       O  0.66267672  0.73785619  0.00184929    -0.78600
O1017       O  0.59895507  0.81998658  0.97933993    -0.79300
C1018       C  0.64349400  0.70274128  0.99939120     0.96000
O1019       O  0.66807663  0.79170372  0.94034705    -0.77300
O1020       O  0.53480829  0.67894650  0.98091306    -0.82400
C1021       C  0.54460112  0.74219359  0.91319853     0.98600
C1022       C  0.51911114  0.68608450  0.00990827     1.04500
O1023       O  0.53904918  0.75290659  0.94736339    -0.78100
C1024       C  0.65937580  0.76746782  0.91264225     1.02800
Fe1025     Fe  0.80424955  0.63414135  0.01033622     1.65800
Fe1026     Fe  0.73052670  0.56659338  0.05799100     1.73200
Fe1027     Fe  0.78779171  0.54698782  0.00597649     1.54400
O1028       O  0.80401274  0.57220689  0.94957704    -0.81800
O1029       O  0.74998604  0.54428690  0.09989220    -0.80100
O1030       O  0.79702087  0.62142713  0.94873456    -0.84300
O1031       O  0.85337780  0.63346062  0.01097508    -0.79200
O1032       O  0.73707531  0.51400930  0.98109766    -0.81000
O1033       O  0.75536882  0.61460085  0.09300497    -0.83700
C1034       C  0.86324715  0.61067535  0.02205487     0.97100
C1035       C  0.80211713  0.59763011  0.93049877     1.04500
O1036       O  0.77401617  0.58239525  0.02447705    -1.12700
O1037       O  0.70850050  0.58971442  0.01922887    -0.75100
O1038       O  0.75969222  0.64324921  0.00881392    -0.78600
O1039       O  0.84045006  0.57690147  0.02832020    -0.79300
C1040       C  0.72470152  0.62390796  0.01030135     0.96000
O1041       O  0.81310642  0.64798731  0.07129927    -0.77300
O1042       O  0.70047716  0.51500349  0.02898082    -0.82400
C1043       C  0.76200768  0.52238140  0.09492584     0.98600
C1044       C  0.70661435  0.99904477  0.99943209     1.04500
O1045       O  0.77269481  0.51721178  0.06054867    -0.78100
C1046       C  0.78881868  0.63939188  0.09858378     1.02800
Fe1047     Fe  0.65373104  0.83881552  0.33613685     1.65800
Fe1048     Fe  0.64707443  0.90427327  0.28394412     1.73200
Fe1049     Fe  0.72609969  0.92551223  0.33422889     1.54400
O1050       O  0.71678998  0.90446525  0.39337579    -0.81800
O1051       O  0.68776652  0.92560721  0.24123577    -0.80100
O1052       O  0.66021738  0.85495464  0.39663836    -0.84300
O1053       O  0.70279045  0.83835363  0.33931018    -0.79200
O1054       O  0.71204773  0.96265452  0.35389653    -0.81000
O1055       O  0.62421198  0.85498929  0.25115425    -0.83700
C1056       C  0.73546297  0.85984540  0.32754770     0.97100
C1057       C  0.68976565  0.87957560  0.41370148     1.04500
O1058       O  0.67567865  0.88996512  0.31853753    -1.12700
O1059       O  0.60232320  0.88234607  0.32287905    -0.75100
O1060       O  0.60007522  0.82947860  0.33580915    -0.78600
O1061       O  0.74665437  0.89267688  0.31663725    -0.79300
C1062       C  0.58435460  0.84850316  0.33297838     0.96000
O1063       O  0.64849746  0.82240563  0.27586192    -0.77300
O1064       O  0.66816382  0.95654345  0.31104478    -0.82400
C1065       C  0.72245565  0.94465640  0.24323658     0.98600
C1066       C  0.69267684  0.97462238  0.33811696     1.04500
O1067       O  0.74033837  0.95004235  0.27647618    -0.78100
C1068       C  0.63313014  0.83031380  0.24725866     1.02800
C1069       C  0.77811831  0.51900912  0.16713111    -0.21500
C1070       C  0.76112026  0.50078982  0.13055245    -0.09500
C1071       C  0.73700823  0.96253172  0.13073099     0.29400
C1072       C  0.72720309  0.94345886  0.16782245    -0.21500
C1073       C  0.74161657  0.96225395  0.20496998    -0.09500
C1074       C  0.76888199  0.49975871  0.20422724     0.29400
F1075       F  0.78338011  0.51864357  0.23954932    -0.20000
H1076       H  0.79661316  0.54863385  0.16727314     0.17700
H1077       H  0.70618499  0.91448661  0.16783738     0.17700
F1078       F  0.71965616  0.94450855  0.09582898    -0.20000
C1079       C  0.59650445  0.80758723  0.18350386    -0.21500
C1080       C  0.62576890  0.81127261  0.20739608    -0.09500
C1081       C  0.64998086  0.80100034  0.19060947     0.29400
C1082       C  0.64634480  0.78997006  0.14949120    -0.21500
C1083       C  0.61830843  0.78860565  0.12474050    -0.09500
C1084       C  0.59248951  0.79616109  0.14292277     0.29400
F1085       F  0.56395104  0.79406035  0.12128615    -0.20000
H1086       H  0.57720568  0.81479865  0.19593674     0.17700
H1087       H  0.66631835  0.78391653  0.13666098     0.17700
F1088       F  0.67859007  0.80405457  0.21293630    -0.20000
C1089       C  0.66947906  0.90391852  0.95479305    -0.21500
C1090       C  0.64505698  0.88233445  0.98557654    -0.09500
C1091       C  0.63548511  0.89932039  0.01614299     0.29400
C1092       C  0.65276689  0.93782460  0.01798379    -0.21500
C1093       C  0.67981581  0.95991908  0.98927813    -0.09500
C1094       C  0.68636297  0.94240337  0.95611961     0.29400
F1095       F  0.71098570  0.96240197  0.92648617    -0.20000
H1096       H  0.67657444  0.89102535  0.93063436     0.17700
H1097       H  0.64711353  0.95026282  0.04382482     0.17700
F1098       F  0.61165426  0.87876188  0.04613028    -0.20000
C1099       C  0.70073748  0.69930761  0.99321742    -0.21500
C1100       C  0.66304944  0.68133995  0.00249471    -0.09500
C1101       C  0.64506342  0.64331553  0.01163238     0.29400
C1102       C  0.66480031  0.62443340  0.01282184    -0.21500
C1103       C  0.70277824  0.64276318  0.00427819    -0.09500
C1104       C  0.72024674  0.68050283  0.99371962     0.29400
F1105       F  0.75645228  0.69968819  0.98404144    -0.20000
H1106       H  0.71533597  0.72824343  0.98484976     0.17700
H1107       H  0.65039809  0.59552752  0.02125454     0.17700
F1108       F  0.60866948  0.62453317  0.02036330    -0.20000
C1109       C  0.96294434  0.67188029  0.04914292    -0.21500
C1110       C  0.98017192  0.65985872  0.02125046    -0.09500
C1111       C  0.95800488  0.62703483  0.99923368     0.29400
C1112       C  0.91956207  0.60918961  0.00210931    -0.21500
C1113       C  0.90282249  0.62412837  0.02631719    -0.09500
C1114       C  0.92478598  0.65471625  0.05105407     0.29400
F1115       F  0.90934473  0.66915629  0.07556010    -0.20000
H1116       H  0.97890001  0.69658486  0.06726995     0.17700
H1117       H  0.90286980  0.58528924  0.98308591     0.17700
F1118       F  0.97315035  0.61369427  0.97277315    -0.20000
C1119       C  0.98703961  0.72780558  0.87723258    -0.21500
C1120       C  0.52527596  0.74378133  0.87645061    -0.09500
C1121       C  0.54399083  0.75596117  0.83899260     0.29400
C1122       C  0.52428893  0.74913770  0.80239854    -0.21500
C1123       C  0.98582213  0.72932335  0.80286733    -0.09500
C1124       C  0.96730476  0.72014013  0.84061102     0.29400
F1125       F  0.93003129  0.70090436  0.84178637    -0.20000
H1126       H  0.97224406  0.71823991  0.90585314     0.17700
H1127       H  0.53893673  0.75602686  0.77358428     0.17700
F1128       F  0.58112943  0.77222852  0.83765592    -0.20000
C1129       C  0.82407783  0.57889084  0.82443786    -0.21500
C1130       C  0.83138538  0.61113641  0.80380925    -0.09500
C1131       C  0.82410545  0.63657351  0.82318524     0.29400
C1132       C  0.81263280  0.63115865  0.86395023    -0.21500
C1133       C  0.80791992  0.60015048  0.88571161    -0.09500
C1134       C  0.81195378  0.57304954  0.86478053     0.29400
F1135       F  0.80563696  0.54148091  0.88354787    -0.20000
H1136       H  0.82886524  0.55865212  0.80963870     0.17700
H1137       H  0.80924072  0.65217633  0.87899874     0.17700
F1138       F  0.83091130  0.66806645  0.80391372    -0.20000
C1139       C  0.69239999  0.76226020  0.80717504    -0.21500
C1140       C  0.70017619  0.79628135  0.79010686    -0.09500
C1141       C  0.69840651  0.82239959  0.81552490     0.29400
C1142       C  0.68723423  0.81364155  0.85631406    -0.21500
C1143       C  0.67727733  0.77871890  0.87229821    -0.09500
C1144       C  0.68088836  0.75343773  0.84764062     0.29400
F1145       F  0.67254141  0.71981847  0.86236252    -0.20000
H1146       H  0.69399056  0.74169106  0.78880458     0.17700
H1147       H  0.68449692  0.83350345  0.87477754     0.17700
F1148       F  0.70588679  0.85571988  0.80073824    -0.20000
C1149       C  0.59144563  0.70597877  0.68455346    -0.21500
C1150       C  0.60774121  0.73124777  0.65238719    -0.09500
C1151       C  0.58557628  0.73395245  0.62223855     0.29400
C1152       C  0.54738756  0.71338554  0.62585143    -0.21500
C1153       C  0.53074716  0.69052142  0.66018493    -0.09500
C1154       C  0.55321025  0.68573699  0.68862890     0.29400
F1155       F  0.53867818  0.66454884  0.72251931    -0.20000
H1156       H  0.60843664  0.70391318  0.70817942     0.17700
H1157       H  0.53093243  0.71758230  0.60331175     0.17700
F1158       F  0.60088789  0.75816776  0.59077426    -0.20000
C1159       C  0.84576070  0.97183607  0.67070902    -0.21500
C1160       C  0.80718268  0.95194221  0.67428585    -0.09500
C1161       C  0.78902145  0.97217644  0.67882260     0.29400
C1162       C  0.80871312  0.51072703  0.67890493    -0.21500
C1163       C  0.84715745  0.53071315  0.67505966    -0.09500
C1164       C  0.86560782  0.51071953  0.67139983     0.29400
F1165       F  0.90271413  0.52858973  0.66805340    -0.20000
H1166       H  0.86064255  0.95730980  0.66683987     0.17700
H1167       H  0.79353588  0.52497681  0.68264738     0.17700
F1168       F  0.75195574  0.95495249  0.68258993    -0.20000
C1169       C  0.87955321  0.78097301  0.66380968    -0.21500
C1170       C  0.86604133  0.74997852  0.68957068    -0.09500
C1171       C  0.83604160  0.74116084  0.71481970     0.29400
C1172       C  0.81846640  0.76166539  0.71268093    -0.21500
C1173       C  0.82942923  0.79058140  0.68403195    -0.09500
C1174       C  0.86120898  0.80099797  0.66064305     0.29400
F1175       F  0.87299825  0.82858607  0.63264319    -0.20000
H1176       H  0.90271969  0.78804917  0.64404090     0.17700
H1177       H  0.79441030  0.75290509  0.73152301     0.17700
F1178       F  0.82259033  0.71151627  0.74018836    -0.20000
C1179       C  0.67650838  0.84616249  0.52384346    -0.21500
C1180       C  0.71049017  0.87200614  0.54103567    -0.09500
C1181       C  0.73525503  0.90263268  0.51773570     0.29400
C1182       C  0.72712327  0.90599018  0.47710947    -0.21500
C1183       C  0.69438122  0.87864576  0.45864762    -0.09500
C1184       C  0.66848072  0.84922103  0.48293008     0.29400
F1185       F  0.63635045  0.82226810  0.46678825    -0.20000
H1186       H  0.65706295  0.82228531  0.54131491     0.17700
H1187       H  0.74739119  0.92934143  0.45962256     0.17700
F1188       F  0.76786041  0.92876957  0.53383363    -0.20000
C1189       C  0.98536060  0.77327268  0.35320088    -0.21500
C1190       C  0.96521372  0.79016095  0.34157400    -0.09500
C1191       C  0.98476022  0.82751421  0.32957796     0.29400
C1192       C  0.52347658  0.84683677  0.32800599    -0.21500
C1193       C  0.54357471  0.82955671  0.33902596    -0.08900
C1194       C  0.52375254  0.79253534  0.35232801     0.29400
F1195       F  0.54130159  0.77450833  0.36445557    -0.20000
H1196       H  0.97131044  0.74493827  0.36375686     0.17700
H1197       H  0.53766401  0.87512920  0.31736925     0.17700
F1198       F  0.96653878  0.84508885  0.31835372    -0.20000
C1199       C  0.80585088  0.83575020  0.36366588    -0.21500
C1200       C  0.80454164  0.81245982  0.33199111    -0.09500
C1201       C  0.78308067  0.80834622  0.29687040     0.29400
C1202       C  0.76162463  0.82500013  0.29497244    -0.21500
C1203       C  0.76140207  0.84627239  0.32765669    -0.09500
C1204       C  0.78437200  0.85246558  0.36158345     0.29400
F1205       F  0.78438556  0.87290566  0.39372393    -0.20000
H1206       H  0.82149410  0.83902702  0.39128528     0.17700
H1207       H  0.74416371  0.82022811  0.26857344     0.17700
F1208       F  0.78111557  0.78653816  0.26521119    -0.20000
C1209       C  0.74542445  0.56831135  0.38718824    -0.21500
C1210       C  0.74371854  0.59042113  0.35621534    -0.09500
C1211       C  0.71883805  0.57383191  0.32364628     0.29400
C1212       C  0.69850178  0.53528456  0.32011578    -0.21500
C1213       C  0.70278828  0.51292243  0.34911281    -0.09500
C1214       C  0.72475819  0.52986734  0.38410578     0.29400
F1215       F  0.72855707  0.50936758  0.41384401    -0.20000
H1216       H  0.76420965  0.58082071  0.41270361     0.17700
H1217       H  0.68203480  0.52319025  0.29286546     0.17700
F1218       F  0.71670215  0.59492726  0.29341075    -0.20000
C1219       C  0.77374402  0.66316624  0.16037025    -0.21500
C1220       C  0.79931629  0.65804961  0.13861980    -0.09500
C1221       C  0.83308420  0.66749473  0.15719224     0.29400
C1222       C  0.84002069  0.67977414  0.19780195    -0.21500
C1223       C  0.81354969  0.68309238  0.22039947    -0.09500
C1224       C  0.78076543  0.67585979  0.20061461     0.29400
F1225       F  0.75469414  0.67971943  0.22037230    -0.20000
H1226       H  0.74775007  0.65644893  0.14643867     0.17700
H1227       H  0.86551480  0.68522921  0.21200537     0.17700
F1228       F  0.85828631  0.66242498  0.13719166    -0.20000
C1229       C  0.75241575  0.75472731  0.46577022    -0.21500
C1230       C  0.76947646  0.73355920  0.46851924    -0.09500
C1231       C  0.77397439  0.72136581  0.50708388     0.29400
C1232       C  0.76380943  0.73240216  0.54259164    -0.21500
C1233       C  0.75006571  0.75654500  0.54004026    -0.09500
C1234       C  0.74318300  0.76660313  0.50129783     0.29400
F1235       F  0.72948835  0.78960519  0.49790142    -0.20000
H1236       H  0.74911196  0.76467137  0.43631505     0.17700
H1237       H  0.76947082  0.72453685  0.57214744     0.17700
F1238       F  0.79021150  0.70063525  0.51047720    -0.20000
C1239       C  0.86035286  0.65863132  0.48857372    -0.21500
C1240       C  0.88640652  0.69168250  0.46985547    -0.09500
C1241       C  0.91822050  0.71644133  0.49150707     0.29400
C1242       C  0.92218614  0.70985034  0.53247710    -0.21500
C1243       C  0.89440740  0.67858457  0.55267134    -0.09500
C1244       C  0.86416120  0.65203840  0.52975173     0.29400
F1245       F  0.83711904  0.62086682  0.54748805    -0.20000
H1246       H  0.83572774  0.63911120  0.47219673     0.17700
H1247       H  0.94632939  0.73025661  0.54884330     0.17700
F1248       F  0.94478035  0.74778797  0.47351541    -0.20000
loop_ 
_geom_bond_atom_site_label_1 
_geom_bond_atom_site_label_2 
_geom_bond_distance 
_geom_bond_site_symmetry_2 
_ccdc_geom_bond_type 
Fe1          O17   2.052       .  S
Fe1           O7   2.090       .  S
Fe1          O14   2.101       .  S
Fe1           O6   2.062       .  S
Fe1          O12   1.934       .  S
Fe2           O5   2.047       .  S
Fe2           O9   2.082       .  S
Fe2          O13   2.074       .  S
Fe2          O18   2.107       .  S
Fe2          O12   1.942       .  S
Fe3          O21   2.095       .  S
Fe3           O8   2.037       .  S
Fe3          O15   2.052       .  S
Fe3           O4   2.074       .  S
Fe3          O12   1.938       .  S
O4           C11   1.274       .  A
O5           C19   1.267       .  A
O6           C11   1.274       .  A
O7           C10   1.273       .  A
O8           C20   1.263       .  A
O9           C22   1.273       .  A
C10          O15   1.265       .  A
C10         C274   1.469       .  S
C11         C287   1.483       .  S
O13          C16   1.274       .  A
O14          C16   1.278       .  A
C16         C254   1.495       .  S
O17          C22   1.268       .  A
O18          C20   1.276       .  A
C19          O21   1.275       .  A
C19         C294   1.469       .  S
C20         C264   1.486       .  S
C22         C304   1.468       .  S
Fe23         O39   2.052       .  S
Fe23         O29   2.082       .  S
Fe23         O36   2.089       .  S
Fe23         O28   2.064       .  S
Fe23         O34   1.939       .  S
Fe24         O27   2.046       .  S
Fe24         O31   2.086       .  S
Fe24         O35   2.072       .  S
Fe24         O40   2.112       .  S
Fe24         O34   1.948       .  S
Fe25         O43   2.089       .  S
Fe25         O30   2.033       .  S
Fe25         O37   2.051       .  S
Fe25         O26   2.076       .  S
Fe25         O34   1.939       .  S
O26          C33   1.276       .  A
O27          C41   1.267       .  A
O28          C33   1.274       .  A
O29          C32   1.270       .  A
O30          C42   1.264       .  A
O31          C44   1.275       .  A
C32          O37   1.263       .  A
C32         C214   1.465       .  S
C33         C204   1.484       .  S
O35          C38   1.272       .  A
O36          C38   1.274       .  A
C38         C224   1.498       .  S
O39          C44   1.270       .  A
O40          C42   1.278       .  A
C41          O43   1.273       .  A
C41         C297   1.472       .  S
C42         C237   1.491       .  S
C44         C244   1.472       .  S
Fe45         O61   2.048       .  S
Fe45         O51   2.080       .  S
Fe45         O58   2.091       .  S
Fe45         O50   2.055       .  S
Fe45         O56   1.940       .  S
Fe46         O49   2.037       .  S
Fe46         O53   2.083       .  S
Fe46         O57   2.069       .  S
Fe46         O62   2.096       .  S
Fe46         O56   1.949       .  S
Fe47         O65   2.095       .  S
Fe47         O52   2.037       .  S
Fe47         O59   2.057       .  S
Fe47         O48   2.076       .  S
Fe47         O56   1.950       .  S
O48          C55   1.277       .  A
O49          C63   1.267       .  A
O50          C55   1.273       .  A
O51          C54   1.270       .  A
O52          C64   1.263       .  A
O53          C66   1.274       .  A
C54          O59   1.264       .  A
C54         C234   1.473       .  S
C55         C307   1.480       .  S
O57          C60   1.270       .  A
O58          C60   1.274       .  A
C60         C227   1.495       .  S
O61          C66   1.268       .  A
O62          C64   1.274       .  A
C63          O65   1.276       .  A
C63         C187   1.467       .  S
C64         C841   1.484       .  S
C66         C194   1.467       .  S
Fe67         O83   2.057   1_554  S
Fe67         O73   2.090       .  S
Fe67         O80   2.097       .  S
Fe67         O72   2.079       .  S
Fe67         O78   1.942   1_554  S
Fe68         O71   2.051       .  S
Fe68         O75   2.085       .  S
Fe68         O79   2.080       .  S
Fe68         O84   2.115       .  S
Fe68         O78   1.949       .  S
Fe69         O87   2.082   1_554  S
Fe69         O74   2.034       .  S
Fe69         O81   2.048   1_554  S
Fe69         O70   2.065       .  S
Fe69         O78   1.942   1_554  S
O70          C77   1.273       .  A
O71          C85   1.267       .  A
O72          C77   1.277       .  A
O73          C76   1.272   1_554  A
O74          C86   1.264       .  A
O75          C88   1.275       .  A
C76          O81   1.263       .  A
C76         C154   1.468       .  S
C77         C147   1.488       .  S
O79          C82   1.274       .  A
O80          C82   1.276   1_554  A
C82         C164   1.500   1_556  S
O83          C88   1.270       .  A
O84          C86   1.279   1_556  A
C85          O87   1.271       .  A
C85         C184   1.468       .  S
C86         C798   1.491   1_455  S
C88         C207   1.475       .  S
Fe89        O105   2.055       .  S
Fe89         O95   2.089       .  S
Fe89        O102   2.101       .  S
Fe89         O94   2.064   1_554  S
Fe89        O100   1.939       .  S
Fe90         O93   2.046       .  S
Fe90         O97   2.082       .  S
Fe90        O101   2.075       .  S
Fe90        O106   2.103       .  S
Fe90        O100   1.947       .  S
Fe91        O109   2.083       .  S
Fe91         O96   2.038   1_554  S
Fe91        O103   2.054       .  S
Fe91         O92   2.062   1_554  S
Fe91        O100   1.949       .  S
O92          C99   1.272       .  A
O93         C107   1.267       .  A
O94          C99   1.274       .  A
O95          C98   1.273       .  A
O96         C420   1.263   1_545  A
O97         C110   1.274       .  A
C98         O103   1.265       .  A
C98         C177   1.474       .  S
C99         C197   1.479       .  S
O101        C104   1.273       .  A
O102        C104   1.277       .  A
C104        C167   1.504       .  S
O105        C110   1.268       .  A
O106        C420   1.277   1_544  A
C107        O109   1.272       .  A
C107        C134   1.462       .  S
C108        O408   1.263       .  A
C108        O418   1.277   1_556  A
C108        C157   1.486       .  S
C110        C284   1.473       .  S
Fe111       O127   2.061       .  S
Fe111       O117   2.083       .  S
Fe111       O124   2.095       .  S
Fe111       O116   2.063       .  S
Fe111       O122   1.946       .  S
Fe112       O115   2.039       .  S
Fe112       O119   2.085       .  S
Fe112       O123   2.071       .  S
Fe112       O128   2.103       .  S
Fe112       O122   1.953       .  S
Fe113       O131   2.087       .  S
Fe113       O118   2.036       .  S
Fe113       O125   2.051       .  S
Fe113       O114   2.077       .  S
Fe113       O122   1.950       .  S
O114        C121   1.277       .  A
O115        C129   1.266       .  A
O116        C121   1.276       .  A
O117        C120   1.268       .  A
O118        C130   1.264       .  A
O119        C132   1.276       .  A
C120        O125   1.262       .  A
C120        C267   1.469       .  S
C121        C247   1.483       .  S
O123        C126   1.270       .  A
O124        C126   1.274       .  A
C126        C257   1.501       .  S
O127        C132   1.271       .  A
O128        C130   1.276       .  A
C129        O131   1.273       .  A
C129        C137   1.470       .  S
C130        C589   1.485       .  S
C132        C144   1.477       .  S
C133        C134   1.403       .  A
C133        C138   1.398   1_545  A
C133        H140   1.084       .  S
C134        C447   1.401   1_545  A
C135        C136   1.394       .  A
C135        C446   1.401       .  A
C135        F142   1.358       .  S
C136        C137   1.406       .  A
C136        H141   1.084       .  S
C137        C450   1.404       .  A
C138        C449   1.404       .  A
C138        F139   1.357   1_565  S
C143        C144   1.399       .  A
C143        C148   1.391       .  A
C143        H150   1.084       .  S
C144        C145   1.409       .  A
C145        C146   1.404       .  A
C145        F152   1.357       .  S
C146        C147   1.407       .  A
C146        H151   1.083       .  S
C147        C148   1.414       .  A
C148        F149   1.358       .  S
C153        C154   1.398       .  A
C153        C158   1.399       .  A
C153        H160   1.084       .  S
C154        C155   1.403   1_556  A
C155        C156   1.399       .  A
C155        F162   1.357       .  S
C156        C157   1.406   1_554  A
C156        H161   1.083       .  S
C157        C158   1.416       .  A
C158        F159   1.358       .  S
C163        C164   1.408   1_556  A
C163        C168   1.400       .  A
C163        H170   1.083       .  S
C164        C165   1.410       .  A
C165        C166   1.412       .  A
C165        F172   1.357       .  S
C166        C167   1.413       .  A
C166        H171   1.083       .  S
C167        C168   1.411   1_554  A
C168        F169   1.357       .  S
C173        C174   1.412       .  A
C173        C178   1.395       .  A
C173        H180   1.083       .  S
C174        C710   1.491       .  S
C174        C175   1.410   1_554  A
C175        C176   1.405   1_556  A
C175        F182   1.357       .  S
C176        C177   1.406       .  A
C176        H181   1.084   1_554  S
C177        C178   1.399       .  A
C178        F179   1.357       .  S
C183        C188   1.396       .  A
C183        C808   1.400       .  A
C183        H190   1.084       .  S
C184        C185   1.407       .  A
C184        C807   1.400   1_455  A
C185        C186   1.398       .  A
C185        F192   1.358       .  S
C186        C811   1.401   1_455  A
C186        H191   1.084       .  S
C187        C188   1.407       .  A
C187        C810   1.401       .  A
C188        F189   1.358       .  S
C193        C194   1.399       .  A
C193        C198   1.391       .  A
C193        H200   1.084       .  S
C194        C195   1.405       .  A
C195        C196   1.397       .  A
C195        F202   1.357       .  S
C196        C197   1.405       .  A
C196        H201   1.083       .  S
C197        C198   1.412       .  A
C198        F199   1.358       .  S
C203        C204   1.408       .  A
C203        C208   1.393       .  A
C203        H210   1.083       .  S
C204        C205   1.410       .  A
C205        C206   1.400       .  A
C205        F212   1.357       .  S
C206        C207   1.405       .  A
C206        H211   1.084       .  S
C207        C208   1.403       .  A
C208        F209   1.358       .  S
C213        C214   1.402       .  A
C213        C218   1.400       .  A
C213        H220   1.084       .  S
C214        C215   1.399       .  A
C215        C216   1.397       .  A
C215        F222   1.358       .  S
C216        C217   1.411       .  A
C216        H221   1.084       .  S
C217        C688   1.484   1_455  S
C217        C218   1.409       .  A
C218        F219   1.357       .  S
C223        C224   1.410       .  A
C223        C540   1.409       .  A
C223        H230   1.083       .  S
C224        C225   1.412       .  A
C225        C538   1.397       .  A
C225        F232   1.358       .  S
C226        C227   1.406       .  A
C226        C537   1.397   1_545  A
C226        H231   1.083       .  S
C227        C228   1.411       .  A
C228        C535   1.409   1_545  A
C228        F229   1.357       .  S
C233        C234   1.405       .  A
C233        C238   1.406       .  A
C233        H240   1.083       .  S
C234        C235   1.398       .  A
C235        C236   1.394       .  A
C235        F242   1.357       .  S
C236        C237   1.412       .  A
C236        H241   1.083       .  S
C237        C238   1.410       .  A
C238        F239   1.357       .  S
C243        C244   1.404       .  A
C243        C248   1.398       .  A
C243        H250   1.083       .  S
C244        C245   1.403       .  A
C245        C246   1.394       .  A
C245        F252   1.358       .  S
C246        C247   1.408       .  A
C246        H251   1.083       .  S
C247        C248   1.410       .  A
C248        F249   1.357       .  S
C253        C254   1.406       .  A
C253        C882   1.399       .  A
C253        H260   1.083       .  S
C254        C255   1.409       .  A
C255        C880   1.411       .  A
C255        F262   1.357       .  S
C256        C257   1.413       .  A
C256        C879   1.411   1_455  A
C256        H261   1.082       .  S
C257        C258   1.411       .  A
C258        C877   1.399   1_455  A
C258        F259   1.357       .  S
C263        C264   1.408       .  A
C263        C268   1.401       .  A
C263        H270   1.083       .  S
C264        C265   1.414       .  A
C265        C266   1.398       .  A
C265        F272   1.358       .  S
C266        C267   1.397       .  A
C266        H271   1.083       .  S
C267        C268   1.404       .  A
C268        F269   1.358       .  S
C273        C274   1.397       .  A
C273        C278   1.398       .  A
C273        H280   1.084       .  S
C274        C275   1.405       .  A
C275        C276   1.402       .  A
C275        F282   1.358       .  S
C276        C277   1.406       .  A
C276        H281   1.083       .  S
C277        C442   1.485   1_545  S
C277        C278   1.414       .  A
C278        F279   1.358       .  S
C283        C284   1.400       .  A
C283        C288   1.393       .  A
C283        H290   1.083       .  S
C284        C285   1.407       .  A
C285        C286   1.399       .  A
C285        F292   1.357       .  S
C286        C287   1.407       .  A
C286        H291   1.083       .  S
C287        C288   1.412       .  A
C288        F289   1.357       .  S
C293        C294   1.402       .  A
C293        C298   1.397       .  A
C293        H300   1.084       .  S
C294        C295   1.406       .  A
C295        C296   1.398       .  A
C295        F302   1.358       .  S
C296        C297   1.402       .  A
C296        H301   1.083       .  S
C297        C298   1.408       .  A
C298        F299   1.358       .  S
C303        C304   1.403       .  A
C303        C308   1.397       .  A
C303        H310   1.083       .  S
C304        C305   1.403       .  A
C305        C306   1.392       .  A
C305        F312   1.358       .  S
C306        C307   1.407       .  A
C306        H311   1.083       .  S
C307        C308   1.410       .  A
C308        F309   1.357       .  S
Fe313       O329   2.052       .  S
Fe313       O319   2.090       .  S
Fe313       O326   2.101       .  S
Fe313       O318   2.062       .  S
Fe313       O324   1.934       .  S
Fe314       O317   2.047       .  S
Fe314       O321   2.082       .  S
Fe314       O325   2.074       .  S
Fe314       O330   2.107       .  S
Fe314       O324   1.942       .  S
Fe315       O333   2.095       .  S
Fe315       O320   2.037       .  S
Fe315       O327   2.052       .  S
Fe315       O316   2.074       .  S
Fe315       O324   1.938       .  S
O316        C323   1.274       .  A
O317        C331   1.267       .  A
O318        C323   1.274       .  A
O319        C322   1.273       .  A
O320        C332   1.263       .  A
O321        C334   1.273       .  A
C322        O327   1.265       .  A
C322        C586   1.469       .  S
C323        C599   1.483       .  S
O325        C328   1.274       .  A
O326        C328   1.278       .  A
C328        C566   1.495       .  S
O329        C334   1.268       .  A
O330        C332   1.276       .  A
C331        O333   1.275       .  A
C331        C606   1.469       .  S
C332        C576   1.486       .  S
C334        C616   1.468       .  S
Fe335       O351   2.052       .  S
Fe335       O341   2.082       .  S
Fe335       O348   2.089       .  S
Fe335       O340   2.064       .  S
Fe335       O346   1.939       .  S
Fe336       O339   2.046       .  S
Fe336       O343   2.086       .  S
Fe336       O347   2.072       .  S
Fe336       O352   2.112       .  S
Fe336       O346   1.948       .  S
Fe337       O355   2.089       .  S
Fe337       O342   2.033       .  S
Fe337       O349   2.051       .  S
Fe337       O338   2.076       .  S
Fe337       O346   1.939       .  S
O338        C345   1.276       .  A
O339        C353   1.267       .  A
O340        C345   1.274       .  A
O341        C344   1.270       .  A
O342        C354   1.264       .  A
O343        C356   1.275       .  A
C344        O349   1.263       .  A
C344        C526   1.465       .  S
C345        C516   1.484       .  S
O347        C350   1.272       .  A
O348        C350   1.274       .  A
C350        C536   1.498       .  S
O351        C356   1.270       .  A
O352        C354   1.278       .  A
C353        O355   1.273       .  A
C353        C609   1.472       .  S
C354        C549   1.491       .  S
C356        C556   1.472       .  S
Fe357       O373   2.048       .  S
Fe357       O363   2.080       .  S
Fe357       O370   2.091       .  S
Fe357       O362   2.055       .  S
Fe357       O368   1.940       .  S
Fe358       O361   2.037       .  S
Fe358       O365   2.083       .  S
Fe358       O369   2.069       .  S
Fe358       O374   2.096       .  S
Fe358       O368   1.949       .  S
Fe359       O377   2.095       .  S
Fe359       O364   2.037       .  S
Fe359       O371   2.057       .  S
Fe359       O360   2.076       .  S
Fe359       O368   1.950       .  S
O360        C367   1.277       .  A
O361        C375   1.267       .  A
O362        C367   1.273       .  A
O363        C366   1.270       .  A
O364        C376   1.263       .  A
O365        C378   1.274       .  A
C366        O371   1.264       .  A
C366        C546   1.473       .  S
C367        C619   1.480       .  S
O369        C372   1.270       .  A
O370        C372   1.274       .  A
C372        C539   1.495       .  S
O373        C378   1.268       .  A
O374        C376   1.274       .  A
C375        O377   1.276       .  A
C375        C499   1.467       .  S
C376       C1153   1.484       .  S
C378        C506   1.467       .  S
Fe379       O395   2.057   1_554  S
Fe379       O385   2.090       .  S
Fe379       O392   2.097       .  S
Fe379       O384   2.079       .  S
Fe379       O390   1.942   1_554  S
Fe380       O383   2.051       .  S
Fe380       O387   2.085       .  S
Fe380       O391   2.080       .  S
Fe380       O396   2.115       .  S
Fe380       O390   1.949       .  S
Fe381       O399   2.082   1_554  S
Fe381       O386   2.034       .  S
Fe381       O393   2.048   1_554  S
Fe381       O382   2.065       .  S
Fe381       O390   1.942   1_554  S
O382        C389   1.273       .  A
O383        C397   1.267       .  A
O384        C389   1.277       .  A
O385        C388   1.272   1_554  A
O386        C398   1.264       .  A
O387        C400   1.275       .  A
C388        O393   1.263       .  A
C388        C466   1.468       .  S
C389        C459   1.488       .  S
O391        C394   1.274       .  A
O392        C394   1.276   1_554  A
C394        C476   1.500   1_556  S
O395        C400   1.270       .  A
O396        C398   1.279   1_556  A
C397        O399   1.271       .  A
C397        C496   1.468       .  S
C398       C1110   1.491   1_455  S
C400        C519   1.475       .  S
Fe401       O417   2.055       .  S
Fe401       O407   2.089       .  S
Fe401       O414   2.101       .  S
Fe401       O406   2.064   1_554  S
Fe401       O412   1.939       .  S
Fe402       O405   2.046       .  S
Fe402       O409   2.082       .  S
Fe402       O413   2.075       .  S
Fe402       O418   2.103       .  S
Fe402       O412   1.947       .  S
Fe403       O421   2.083       .  S
Fe403       O408   2.038   1_554  S
Fe403       O415   2.054       .  S
Fe403       O404   2.062   1_554  S
Fe403       O412   1.949       .  S
O404        C411   1.272       .  A
O405        C419   1.267       .  A
O406        C411   1.274       .  A
O407        C410   1.273       .  A
O409        C422   1.274       .  A
C410        O415   1.265       .  A
C410        C489   1.474       .  S
C411        C509   1.479       .  S
O413        C416   1.273       .  A
O414        C416   1.277       .  A
C416        C479   1.504       .  S
O417        C422   1.268       .  A
C419        O421   1.272       .  A
C419        C446   1.462       .  S
C420        C469   1.486       .  S
C422        C596   1.473       .  S
Fe423       O439   2.061       .  S
Fe423       O429   2.083       .  S
Fe423       O436   2.095       .  S
Fe423       O428   2.063       .  S
Fe423       O434   1.946       .  S
Fe424       O427   2.039       .  S
Fe424       O431   2.085       .  S
Fe424       O435   2.071       .  S
Fe424       O440   2.103       .  S
Fe424       O434   1.953       .  S
Fe425       O443   2.087       .  S
Fe425       O430   2.036       .  S
Fe425       O437   2.051       .  S
Fe425       O426   2.077       .  S
Fe425       O434   1.950       .  S
O426        C433   1.277       .  A
O427        C441   1.266       .  A
O428        C433   1.276       .  A
O429        C432   1.268       .  A
O430        C442   1.264       .  A
O431        C444   1.276       .  A
C432        O437   1.262       .  A
C432        C579   1.469       .  S
C433        C559   1.483       .  S
O435        C438   1.270       .  A
O436        C438   1.274       .  A
C438        C569   1.501       .  S
O439        C444   1.271       .  A
O440        C442   1.276       .  A
C441        O443   1.273       .  A
C441        C449   1.470       .  S
C444        C456   1.477       .  S
C445        C446   1.403       .  A
C445        C450   1.398       .  A
C445        H452   1.084       .  S
C447        C448   1.394       .  A
C447        F454   1.358       .  S
C448        C449   1.406       .  A
C448        H453   1.084       .  S
C450        F451   1.357       .  S
C455        C456   1.399       .  A
C455        C460   1.391       .  A
C455        H462   1.084       .  S
C456        C457   1.409       .  A
C457        C458   1.404       .  A
C457        F464   1.357       .  S
C458        C459   1.407       .  A
C458        H463   1.083       .  S
C459        C460   1.414       .  A
C460        F461   1.358       .  S
C465        C466   1.398       .  A
C465        C470   1.399       .  A
C465        H472   1.084       .  S
C466        C467   1.403   1_556  A
C467        C468   1.399       .  A
C467        F474   1.357       .  S
C468        C469   1.406   1_554  A
C468        H473   1.083       .  S
C469        C470   1.416       .  A
C470        F471   1.358       .  S
C475        C476   1.408   1_556  A
C475        C480   1.400       .  A
C475        H482   1.083       .  S
C476        C477   1.410       .  A
C477        C478   1.412       .  A
C477        F484   1.357       .  S
C478        C479   1.413       .  A
C478        H483   1.083       .  S
C479        C480   1.411   1_554  A
C480        F481   1.357       .  S
C485        C486   1.412       .  A
C485        C490   1.395       .  A
C485        H492   1.083       .  S
C486       C1022   1.491       .  S
C486        C487   1.410   1_554  A
C487        C488   1.405   1_556  A
C487        F494   1.357       .  S
C488        C489   1.406       .  A
C488        H493   1.084   1_554  S
C489        C490   1.399       .  A
C490        F491   1.357       .  S
C495       C1120   1.400       .  A
C495        C500   1.396       .  A
C495        H502   1.084       .  S
C496       C1119   1.400   1_455  A
C496        C497   1.407       .  A
C497        C498   1.398       .  A
C497        F504   1.358       .  S
C498       C1123   1.401   1_455  A
C498        H503   1.084       .  S
C499       C1122   1.401       .  A
C499        C500   1.407       .  A
C500        F501   1.358       .  S
C505        C506   1.399       .  A
C505        C510   1.391       .  A
C505        H512   1.084       .  S
C506        C507   1.405       .  A
C507        C508   1.397       .  A
C507        F514   1.357       .  S
C508        C509   1.405       .  A
C508        H513   1.083       .  S
C509        C510   1.412       .  A
C510        F511   1.358       .  S
C515        C516   1.408       .  A
C515        C520   1.393       .  A
C515        H522   1.083       .  S
C516        C517   1.410       .  A
C517        C518   1.400       .  A
C517        F524   1.357       .  S
C518        C519   1.405       .  A
C518        H523   1.084       .  S
C519        C520   1.403       .  A
C520        F521   1.358       .  S
C525        C526   1.402       .  A
C525        C530   1.400       .  A
C525        H532   1.084       .  S
C526        C527   1.399       .  A
C527        C528   1.397       .  A
C527        F534   1.358       .  S
C528        C529   1.411       .  A
C528        H533   1.084       .  S
C529       C1000   1.484   1_455  S
C529        C530   1.409       .  A
C530        F531   1.357       .  S
C535        C536   1.410       .  A
C535        H542   1.083       .  S
C536        C537   1.412       .  A
C537        F544   1.358       .  S
C538        C539   1.406       .  A
C538        H543   1.083       .  S
C539        C540   1.411       .  A
C540        F541   1.357       .  S
C545        C546   1.405       .  A
C545        C550   1.406       .  A
C545        H552   1.083       .  S
C546        C547   1.398       .  A
C547        C548   1.394       .  A
C547        F554   1.357       .  S
C548        C549   1.412       .  A
C548        H553   1.083       .  S
C549        C550   1.410       .  A
C550        F551   1.357       .  S
C555        C556   1.404       .  A
C555        C560   1.398       .  A
C555        H562   1.083       .  S
C556        C557   1.403       .  A
C557        C558   1.394       .  A
C557        F564   1.358       .  S
C558        C559   1.408       .  A
C558        H563   1.083       .  S
C559        C560   1.410       .  A
C560        F561   1.357       .  S
C565        C566   1.406       .  A
C565       C1194   1.399       .  A
C565        H572   1.083       .  S
C566        C567   1.409       .  A
C567       C1192   1.411       .  A
C567        F574   1.357       .  S
C568       C1191   1.411   1_455  A
C568        C569   1.413       .  A
C568        H573   1.082       .  S
C569        C570   1.411       .  A
C570       C1189   1.399   1_455  A
C570        F571   1.357       .  S
C575        C576   1.408       .  A
C575        C580   1.401       .  A
C575        H582   1.083       .  S
C576        C577   1.414       .  A
C577        C578   1.398       .  A
C577        F584   1.358       .  S
C578        C579   1.397       .  A
C578        H583   1.083       .  S
C579        C580   1.404       .  A
C580        F581   1.358       .  S
C585        C586   1.397       .  A
C585        C590   1.398       .  A
C585        H592   1.084       .  S
C586        C587   1.405       .  A
C587        C588   1.402       .  A
C587        F594   1.358       .  S
C588        C589   1.406       .  A
C588        H593   1.083       .  S
C589        C590   1.414       .  A
C590        F591   1.358       .  S
C595        C596   1.400       .  A
C595        C600   1.393       .  A
C595        H602   1.083       .  S
C596        C597   1.407       .  A
C597        C598   1.399       .  A
C597        F604   1.357       .  S
C598        C599   1.407       .  A
C598        H603   1.083       .  S
C599        C600   1.412       .  A
C600        F601   1.357       .  S
C605        C606   1.402       .  A
C605        C610   1.397       .  A
C605        H612   1.084       .  S
C606        C607   1.406       .  A
C607        C608   1.398       .  A
C607        F614   1.358       .  S
C608        C609   1.402       .  A
C608        H613   1.083       .  S
C609        C610   1.408       .  A
C610        F611   1.358       .  S
C615        C616   1.403       .  A
C615        C620   1.397       .  A
C615        H622   1.083       .  S
C616        C617   1.403       .  A
C617        C618   1.392       .  A
C617        F624   1.358       .  S
C618        C619   1.407       .  A
C618        H623   1.083       .  S
C619        C620   1.410       .  A
C620        F621   1.357       .  S
Fe625       O641   2.052       .  S
Fe625       O631   2.090       .  S
Fe625       O638   2.101       .  S
Fe625       O630   2.062       .  S
Fe625       O636   1.934       .  S
Fe626       O629   2.047       .  S
Fe626       O633   2.082       .  S
Fe626       O637   2.074       .  S
Fe626       O642   2.107       .  S
Fe626       O636   1.942       .  S
Fe627       O645   2.095       .  S
Fe627       O632   2.037       .  S
Fe627       O639   2.052       .  S
Fe627       O628   2.074       .  S
Fe627       O636   1.938       .  S
O628        C635   1.274       .  A
O629        C643   1.267       .  A
O630        C635   1.274       .  A
O631        C634   1.273       .  A
O632        C644   1.263       .  A
O633        C646   1.273       .  A
C634        O639   1.265       .  A
C634        C898   1.469       .  S
C635        C911   1.483       .  S
O637        C640   1.274       .  A
O638        C640   1.278       .  A
C640        C878   1.495       .  S
O641        C646   1.268       .  A
O642        C644   1.276       .  A
C643        O645   1.275       .  A
C643        C918   1.469       .  S
C644        C888   1.486       .  S
C646        C928   1.468       .  S
Fe647       O663   2.052       .  S
Fe647       O653   2.082       .  S
Fe647       O660   2.089       .  S
Fe647       O652   2.064       .  S
Fe647       O658   1.939       .  S
Fe648       O651   2.046       .  S
Fe648       O655   2.086       .  S
Fe648       O659   2.072       .  S
Fe648       O664   2.112       .  S
Fe648       O658   1.948       .  S
Fe649       O667   2.089       .  S
Fe649       O654   2.033       .  S
Fe649       O661   2.051       .  S
Fe649       O650   2.076       .  S
Fe649       O658   1.939       .  S
O650        C657   1.276       .  A
O651        C665   1.267       .  A
O652        C657   1.274       .  A
O653        C656   1.270       .  A
O654        C666   1.264       .  A
O655        C668   1.275       .  A
C656        O661   1.263       .  A
C656        C838   1.465       .  S
C657        C828   1.484       .  S
O659        C662   1.272       .  A
O660        C662   1.274       .  A
C662        C848   1.498       .  S
O663        C668   1.270       .  A
O664        C666   1.278       .  A
C665        O667   1.273       .  A
C665        C921   1.472       .  S
C666        C861   1.491       .  S
C668        C868   1.472       .  S
Fe669       O685   2.048       .  S
Fe669       O675   2.080       .  S
Fe669       O682   2.091       .  S
Fe669       O674   2.055       .  S
Fe669       O680   1.940       .  S
Fe670       O673   2.037       .  S
Fe670       O677   2.083       .  S
Fe670       O681   2.069       .  S
Fe670       O686   2.096       .  S
Fe670       O680   1.949       .  S
Fe671       O689   2.095       .  S
Fe671       O676   2.037       .  S
Fe671       O683   2.057       .  S
Fe671       O672   2.076       .  S
Fe671       O680   1.950       .  S
O672        C679   1.277       .  A
O673        C687   1.267       .  A
O674        C679   1.273       .  A
O675        C678   1.270       .  A
O676        C688   1.263       .  A
O677        C690   1.274       .  A
C678        O683   1.264       .  A
C678        C858   1.473       .  S
C679        C931   1.480       .  S
O681        C684   1.270       .  A
O682        C684   1.274       .  A
C684        C851   1.495       .  S
O685        C690   1.268       .  A
O686        C688   1.274       .  A
C687        O689   1.276       .  A
C687        C811   1.467       .  S
C690        C818   1.467       .  S
Fe691       O707   2.057   1_554  S
Fe691       O697   2.090       .  S
Fe691       O704   2.097       .  S
Fe691       O696   2.079       .  S
Fe691       O702   1.942   1_554  S
Fe692       O695   2.051       .  S
Fe692       O699   2.085       .  S
Fe692       O703   2.080       .  S
Fe692       O708   2.115       .  S
Fe692       O702   1.949       .  S
Fe693       O711   2.082   1_554  S
Fe693       O698   2.034       .  S
Fe693       O705   2.048   1_554  S
Fe693       O694   2.065       .  S
Fe693       O702   1.942   1_554  S
O694        C701   1.273       .  A
O695        C709   1.267       .  A
O696        C701   1.277       .  A
O697        C700   1.272   1_554  A
O698        C710   1.264       .  A
O699        C712   1.275       .  A
C700        O705   1.263       .  A
C700        C778   1.468       .  S
C701        C771   1.488       .  S
O703        C706   1.274       .  A
O704        C706   1.276   1_554  A
C706        C788   1.500   1_556  S
O707        C712   1.270       .  A
O708        C710   1.279   1_556  A
C709        O711   1.271       .  A
C709        C808   1.468       .  S
C712        C831   1.475       .  S
Fe713       O729   2.055       .  S
Fe713       O719   2.089       .  S
Fe713       O726   2.101       .  S
Fe713       O718   2.064   1_554  S
Fe713       O724   1.939       .  S
Fe714       O717   2.046       .  S
Fe714       O721   2.082       .  S
Fe714       O725   2.075       .  S
Fe714       O730   2.103       .  S
Fe714       O724   1.947       .  S
Fe715       O733   2.083       .  S
Fe715       O720   2.038   1_554  S
Fe715       O727   2.054       .  S
Fe715       O716   2.062   1_554  S
Fe715       O724   1.949       .  S
O716        C723   1.272       .  A
O717        C731   1.267       .  A
O718        C723   1.274       .  A
O719        C722   1.273       .  A
O720       C1044   1.263   1_545  A
O721        C734   1.274       .  A
C722        O727   1.265       .  A
C722        C801   1.474       .  S
C723        C821   1.479       .  S
O725        C728   1.273       .  A
O726        C728   1.277       .  A
C728        C791   1.504       .  S
O729        C734   1.268       .  A
O730       C1044   1.277   1_544  A
C731        O733   1.272       .  A
C731        C758   1.462       .  S
C732       O1032   1.263       .  A
C732       O1042   1.277   1_556  A
C732        C781   1.486       .  S
C734        C908   1.473       .  S
Fe735       O751   2.061       .  S
Fe735       O741   2.083       .  S
Fe735       O748   2.095       .  S
Fe735       O740   2.063       .  S
Fe735       O746   1.946       .  S
Fe736       O739   2.039       .  S
Fe736       O743   2.085       .  S
Fe736       O747   2.071       .  S
Fe736       O752   2.103       .  S
Fe736       O746   1.953       .  S
Fe737       O755   2.087       .  S
Fe737       O742   2.036       .  S
Fe737       O749   2.051       .  S
Fe737       O738   2.077       .  S
Fe737       O746   1.950       .  S
O738        C745   1.277       .  A
O739        C753   1.266       .  A
O740        C745   1.276       .  A
O741        C744   1.268       .  A
O742        C754   1.264       .  A
O743        C756   1.276       .  A
C744        O749   1.262       .  A
C744        C891   1.469       .  S
C745        C871   1.483       .  S
O747        C750   1.270       .  A
O748        C750   1.274       .  A
C750        C881   1.501       .  S
O751        C756   1.271       .  A
O752        C754   1.276       .  A
C753        O755   1.273       .  A
C753        C761   1.470       .  S
C754       C1213   1.485       .  S
C756        C768   1.477       .  S
C757        C758   1.403       .  A
C757        C762   1.398   1_545  A
C757        H764   1.084       .  S
C758       C1071   1.401   1_545  A
C759       C1070   1.401       .  A
C759        C760   1.394       .  A
C759        F766   1.358       .  S
C760        C761   1.406       .  A
C760        H765   1.084       .  S
C761       C1074   1.404       .  A
C762       C1073   1.404       .  A
C762        F763   1.357   1_565  S
C767        C768   1.399       .  A
C767        C772   1.391       .  A
C767        H774   1.084       .  S
C768        C769   1.409       .  A
C769        C770   1.404       .  A
C769        F776   1.357       .  S
C770        C771   1.407       .  A
C770        H775   1.083       .  S
C771        C772   1.414       .  A
C772        F773   1.358       .  S
C777        C778   1.398       .  A
C777        C782   1.399       .  A
C777        H784   1.084       .  S
C778        C779   1.403   1_556  A
C779        C780   1.399       .  A
C779        F786   1.357       .  S
C780        C781   1.406   1_554  A
C780        H785   1.083       .  S
C781        C782   1.416       .  A
C782        F783   1.358       .  S
C787        C788   1.408   1_556  A
C787        C792   1.400       .  A
C787        H794   1.083       .  S
C788        C789   1.410       .  A
C789        C790   1.412       .  A
C789        F796   1.357       .  S
C790        C791   1.413       .  A
C790        H795   1.083       .  S
C791        C792   1.411   1_554  A
C792        F793   1.357       .  S
C797        C798   1.412       .  A
C797        C802   1.395       .  A
C797        H804   1.083       .  S
C798        C799   1.410   1_554  A
C799        C800   1.405   1_556  A
C799        F806   1.357       .  S
C800        C801   1.406       .  A
C800        H805   1.084   1_554  S
C801        C802   1.399       .  A
C802        F803   1.357       .  S
C807        C812   1.396       .  A
C807        H814   1.084       .  S
C808        C809   1.407       .  A
C809        C810   1.398       .  A
C809        F816   1.358       .  S
C810        H815   1.084       .  S
C811        C812   1.407       .  A
C812        F813   1.358       .  S
C817        C818   1.399       .  A
C817        C822   1.391       .  A
C817        H824   1.084       .  S
C818        C819   1.405       .  A
C819        C820   1.397       .  A
C819        F826   1.357       .  S
C820        C821   1.405       .  A
C820        H825   1.083       .  S
C821        C822   1.412       .  A
C822        F823   1.358       .  S
C827        C828   1.408       .  A
C827        C832   1.393       .  A
C827        H834   1.083       .  S
C828        C829   1.410       .  A
C829        C830   1.400       .  A
C829        F836   1.357       .  S
C830        C831   1.405       .  A
C830        H835   1.084       .  S
C831        C832   1.403       .  A
C832        F833   1.358       .  S
C837        C838   1.402       .  A
C837        C842   1.400       .  A
C837        H844   1.084       .  S
C838        C839   1.399       .  A
C839        C840   1.397       .  A
C839        F846   1.358       .  S
C840        C841   1.411       .  A
C840        H845   1.084       .  S
C841        C842   1.409       .  A
C842        F843   1.357       .  S
C847        C848   1.410       .  A
C847       C1164   1.409       .  A
C847        H854   1.083       .  S
C848        C849   1.412       .  A
C849       C1162   1.397       .  A
C849        F856   1.358       .  S
C850       C1161   1.397   1_545  A
C850        C851   1.406       .  A
C850        H855   1.083       .  S
C851        C852   1.411       .  A
C852       C1159   1.409   1_545  A
C852        F853   1.357       .  S
C857        C858   1.405       .  A
C857        C862   1.406       .  A
C857        H864   1.083       .  S
C858        C859   1.398       .  A
C859        C860   1.394       .  A
C859        F866   1.357       .  S
C860        C861   1.412       .  A
C860        H865   1.083       .  S
C861        C862   1.410       .  A
C862        F863   1.357       .  S
C867        C868   1.404       .  A
C867        C872   1.398       .  A
C867        H874   1.083       .  S
C868        C869   1.403       .  A
C869        C870   1.394       .  A
C869        F876   1.358       .  S
C870        C871   1.408       .  A
C870        H875   1.083       .  S
C871        C872   1.410       .  A
C872        F873   1.357       .  S
C877        C878   1.406       .  A
C877        H884   1.083       .  S
C878        C879   1.409       .  A
C879        F886   1.357       .  S
C880        C881   1.413       .  A
C880        H885   1.082       .  S
C881        C882   1.411       .  A
C882        F883   1.357       .  S
C887        C888   1.408       .  A
C887        C892   1.401       .  A
C887        H894   1.083       .  S
C888        C889   1.414       .  A
C889        C890   1.398       .  A
C889        F896   1.358       .  S
C890        C891   1.397       .  A
C890        H895   1.083       .  S
C891        C892   1.404       .  A
C892        F893   1.358       .  S
C897        C898   1.397       .  A
C897        C902   1.398       .  A
C897        H904   1.084       .  S
C898        C899   1.405       .  A
C899        C900   1.402       .  A
C899        F906   1.358       .  S
C900        C901   1.406       .  A
C900        H905   1.083       .  S
C901       C1066   1.485   1_545  S
C901        C902   1.414       .  A
C902        F903   1.358       .  S
C907        C908   1.400       .  A
C907        C912   1.393       .  A
C907        H914   1.083       .  S
C908        C909   1.407       .  A
C909        C910   1.399       .  A
C909        F916   1.357       .  S
C910        C911   1.407       .  A
C910        H915   1.083       .  S
C911        C912   1.412       .  A
C912        F913   1.357       .  S
C917        C918   1.402       .  A
C917        C922   1.397       .  A
C917        H924   1.084       .  S
C918        C919   1.406       .  A
C919        C920   1.398       .  A
C919        F926   1.358       .  S
C920        C921   1.402       .  A
C920        H925   1.083       .  S
C921        C922   1.408       .  A
C922        F923   1.358       .  S
C927        C928   1.403       .  A
C927        C932   1.397       .  A
C927        H934   1.083       .  S
C928        C929   1.403       .  A
C929        C930   1.392       .  A
C929        F936   1.358       .  S
C930        C931   1.407       .  A
C930        H935   1.083       .  S
C931        C932   1.410       .  A
C932        F933   1.357       .  S
Fe937       O953   2.052       .  S
Fe937       O943   2.090       .  S
Fe937       O950   2.101       .  S
Fe937       O942   2.062       .  S
Fe937       O948   1.934       .  S
Fe938       O941   2.047       .  S
Fe938       O945   2.082       .  S
Fe938       O949   2.074       .  S
Fe938       O954   2.107       .  S
Fe938       O948   1.942       .  S
Fe939       O957   2.095       .  S
Fe939       O944   2.037       .  S
Fe939       O951   2.052       .  S
Fe939       O940   2.074       .  S
Fe939       O948   1.938       .  S
O940        C947   1.274       .  A
O941        C955   1.267       .  A
O942        C947   1.274       .  A
O943        C946   1.273       .  A
O944        C956   1.263       .  A
O945        C958   1.273       .  A
C946        O951   1.265       .  A
C946       C1210   1.469       .  S
C947       C1223   1.483       .  S
O949        C952   1.274       .  A
O950        C952   1.278       .  A
C952       C1190   1.495       .  S
O953        C958   1.268       .  A
O954        C956   1.276       .  A
C955        O957   1.275       .  A
C955       C1230   1.469       .  S
C956       C1200   1.486       .  S
C958       C1240   1.468       .  S
Fe959       O975   2.052       .  S
Fe959       O965   2.082       .  S
Fe959       O972   2.089       .  S
Fe959       O964   2.064       .  S
Fe959       O970   1.939       .  S
Fe960       O963   2.046       .  S
Fe960       O967   2.086       .  S
Fe960       O971   2.072       .  S
Fe960       O976   2.112       .  S
Fe960       O970   1.948       .  S
Fe961       O979   2.089       .  S
Fe961       O966   2.033       .  S
Fe961       O973   2.051       .  S
Fe961       O962   2.076       .  S
Fe961       O970   1.939       .  S
O962        C969   1.276       .  A
O963        C977   1.267       .  A
O964        C969   1.274       .  A
O965        C968   1.270       .  A
O966        C978   1.264       .  A
O967        C980   1.275       .  A
C968        O973   1.263       .  A
C968       C1150   1.465       .  S
C969       C1140   1.484       .  S
O971        C974   1.272       .  A
O972        C974   1.274       .  A
C974       C1160   1.498       .  S
O975        C980   1.270       .  A
O976        C978   1.278       .  A
C977        O979   1.273       .  A
C977       C1233   1.472       .  S
C978       C1173   1.491       .  S
C980       C1180   1.472       .  S
Fe981       O997   2.048       .  S
Fe981       O987   2.080       .  S
Fe981       O994   2.091       .  S
Fe981       O986   2.055       .  S
Fe981       O992   1.940       .  S
Fe982       O985   2.037       .  S
Fe982       O989   2.083       .  S
Fe982       O993   2.069       .  S
Fe982       O998   2.096       .  S
Fe982       O992   1.949       .  S
Fe983      O1001   2.095       .  S
Fe983       O988   2.037       .  S
Fe983       O995   2.057       .  S
Fe983       O984   2.076       .  S
Fe983       O992   1.950       .  S
O984        C991   1.277       .  A
O985        C999   1.267       .  A
O986        C991   1.273       .  A
O987        C990   1.270       .  A
O988       C1000   1.263       .  A
O989       C1002   1.274       .  A
C990        O995   1.264       .  A
C990       C1170   1.473       .  S
C991       C1243   1.480       .  S
O993        C996   1.270       .  A
O994        C996   1.274       .  A
C996       C1163   1.495       .  S
O997       C1002   1.268       .  A
O998       C1000   1.274       .  A
C999       O1001   1.276       .  A
C999       C1123   1.467       .  S
C1002      C1130   1.467       .  S
Fe1003     O1019   2.057   1_554  S
Fe1003     O1009   2.090       .  S
Fe1003     O1016   2.097       .  S
Fe1003     O1008   2.079       .  S
Fe1003     O1014   1.942   1_554  S
Fe1004     O1007   2.051       .  S
Fe1004     O1011   2.085       .  S
Fe1004     O1015   2.080       .  S
Fe1004     O1020   2.115       .  S
Fe1004     O1014   1.949       .  S
Fe1005     O1023   2.082   1_554  S
Fe1005     O1010   2.034       .  S
Fe1005     O1017   2.048   1_554  S
Fe1005     O1006   2.065       .  S
Fe1005     O1014   1.942   1_554  S
O1006      C1013   1.273       .  A
O1007      C1021   1.267       .  A
O1008      C1013   1.277       .  A
O1009      C1012   1.272   1_554  A
O1010      C1022   1.264       .  A
O1011      C1024   1.275       .  A
C1012      O1017   1.263       .  A
C1012      C1090   1.468       .  S
C1013      C1083   1.488       .  S
O1015      C1018   1.274       .  A
O1016      C1018   1.276   1_554  A
C1018      C1100   1.500   1_556  S
O1019      C1024   1.270       .  A
O1020      C1022   1.279   1_556  A
C1021      O1023   1.271       .  A
C1021      C1120   1.468       .  S
C1024      C1143   1.475       .  S
Fe1025     O1041   2.055       .  S
Fe1025     O1031   2.089       .  S
Fe1025     O1038   2.101       .  S
Fe1025     O1030   2.064   1_554  S
Fe1025     O1036   1.939       .  S
Fe1026     O1029   2.046       .  S
Fe1026     O1033   2.082       .  S
Fe1026     O1037   2.075       .  S
Fe1026     O1042   2.103       .  S
Fe1026     O1036   1.947       .  S
Fe1027     O1045   2.083       .  S
Fe1027     O1032   2.038   1_554  S
Fe1027     O1039   2.054       .  S
Fe1027     O1028   2.062   1_554  S
Fe1027     O1036   1.949       .  S
O1028      C1035   1.272       .  A
O1029      C1043   1.267       .  A
O1030      C1035   1.274       .  A
O1031      C1034   1.273       .  A
O1033      C1046   1.274       .  A
C1034      O1039   1.265       .  A
C1034      C1113   1.474       .  S
C1035      C1133   1.479       .  S
O1037      C1040   1.273       .  A
O1038      C1040   1.277       .  A
C1040      C1103   1.504       .  S
O1041      C1046   1.268       .  A
C1043      O1045   1.272       .  A
C1043      C1070   1.462       .  S
C1044      C1093   1.486       .  S
C1046      C1220   1.473       .  S
Fe1047     O1063   2.061       .  S
Fe1047     O1053   2.083       .  S
Fe1047     O1060   2.095       .  S
Fe1047     O1052   2.063       .  S
Fe1047     O1058   1.946       .  S
Fe1048     O1051   2.039       .  S
Fe1048     O1055   2.085       .  S
Fe1048     O1059   2.071       .  S
Fe1048     O1064   2.103       .  S
Fe1048     O1058   1.953       .  S
Fe1049     O1067   2.087       .  S
Fe1049     O1054   2.036       .  S
Fe1049     O1061   2.051       .  S
Fe1049     O1050   2.077       .  S
Fe1049     O1058   1.950       .  S
O1050      C1057   1.277       .  A
O1051      C1065   1.266       .  A
O1052      C1057   1.276       .  A
O1053      C1056   1.268       .  A
O1054      C1066   1.264       .  A
O1055      C1068   1.276       .  A
C1056      O1061   1.262       .  A
C1056      C1203   1.469       .  S
C1057      C1183   1.483       .  S
O1059      C1062   1.270       .  A
O1060      C1062   1.274       .  A
C1062      C1193   1.501       .  S
O1063      C1068   1.271       .  A
O1064      C1066   1.276       .  A
C1065      O1067   1.273       .  A
C1065      C1073   1.470       .  S
C1068      C1080   1.477       .  S
C1069      C1070   1.403       .  A
C1069      C1074   1.398       .  A
C1069      H1076   1.084       .  S
C1071      C1072   1.394       .  A
C1071      F1078   1.358       .  S
C1072      C1073   1.406       .  A
C1072      H1077   1.084       .  S
C1074      F1075   1.357       .  S
C1079      C1080   1.399       .  A
C1079      C1084   1.391       .  A
C1079      H1086   1.084       .  S
C1080      C1081   1.409       .  A
C1081      C1082   1.404       .  A
C1081      F1088   1.357       .  S
C1082      C1083   1.407       .  A
C1082      H1087   1.083       .  S
C1083      C1084   1.414       .  A
C1084      F1085   1.358       .  S
C1089      C1090   1.398       .  A
C1089      C1094   1.399       .  A
C1089      H1096   1.084       .  S
C1090      C1091   1.403   1_556  A
C1091      C1092   1.399       .  A
C1091      F1098   1.357       .  S
C1092      C1093   1.406   1_554  A
C1092      H1097   1.083       .  S
C1093      C1094   1.416       .  A
C1094      F1095   1.358       .  S
C1099      C1100   1.408   1_556  A
C1099      C1104   1.400       .  A
C1099      H1106   1.083       .  S
C1100      C1101   1.410       .  A
C1101      C1102   1.412       .  A
C1101      F1108   1.357       .  S
C1102      C1103   1.413       .  A
C1102      H1107   1.083       .  S
C1103      C1104   1.411   1_554  A
C1104      F1105   1.357       .  S
C1109      C1110   1.412       .  A
C1109      C1114   1.395       .  A
C1109      H1116   1.083       .  S
C1110      C1111   1.410   1_554  A
C1111      C1112   1.405   1_556  A
C1111      F1118   1.357       .  S
C1112      C1113   1.406       .  A
C1112      H1117   1.084   1_554  S
C1113      C1114   1.399       .  A
C1114      F1115   1.357       .  S
C1119      C1124   1.396       .  A
C1119      H1126   1.084       .  S
C1120      C1121   1.407       .  A
C1121      C1122   1.398       .  A
C1121      F1128   1.358       .  S
C1122      H1127   1.084       .  S
C1123      C1124   1.407       .  A
C1124      F1125   1.358       .  S
C1129      C1130   1.399       .  A
C1129      C1134   1.391       .  A
C1129      H1136   1.084       .  S
C1130      C1131   1.405       .  A
C1131      C1132   1.397       .  A
C1131      F1138   1.357       .  S
C1132      C1133   1.405       .  A
C1132      H1137   1.083       .  S
C1133      C1134   1.412       .  A
C1134      F1135   1.358       .  S
C1139      C1140   1.408       .  A
C1139      C1144   1.393       .  A
C1139      H1146   1.083       .  S
C1140      C1141   1.410       .  A
C1141      C1142   1.400       .  A
C1141      F1148   1.357       .  S
C1142      C1143   1.405       .  A
C1142      H1147   1.084       .  S
C1143      C1144   1.403       .  A
C1144      F1145   1.358       .  S
C1149      C1150   1.402       .  A
C1149      C1154   1.400       .  A
C1149      H1156   1.084       .  S
C1150      C1151   1.399       .  A
C1151      C1152   1.397       .  A
C1151      F1158   1.358       .  S
C1152      C1153   1.411       .  A
C1152      H1157   1.084       .  S
C1153      C1154   1.409       .  A
C1154      F1155   1.357       .  S
C1159      C1160   1.410       .  A
C1159      H1166   1.083       .  S
C1160      C1161   1.412       .  A
C1161      F1168   1.358       .  S
C1162      C1163   1.406       .  A
C1162      H1167   1.083       .  S
C1163      C1164   1.411       .  A
C1164      F1165   1.357       .  S
C1169      C1170   1.405       .  A
C1169      C1174   1.406       .  A
C1169      H1176   1.083       .  S
C1170      C1171   1.398       .  A
C1171      C1172   1.394       .  A
C1171      F1178   1.357       .  S
C1172      C1173   1.412       .  A
C1172      H1177   1.083       .  S
C1173      C1174   1.410       .  A
C1174      F1175   1.357       .  S
C1179      C1180   1.404       .  A
C1179      C1184   1.398       .  A
C1179      H1186   1.083       .  S
C1180      C1181   1.403       .  A
C1181      C1182   1.394       .  A
C1181      F1188   1.358       .  S
C1182      C1183   1.408       .  A
C1182      H1187   1.083       .  S
C1183      C1184   1.410       .  A
C1184      F1185   1.357       .  S
C1189      C1190   1.406       .  A
C1189      H1196   1.083       .  S
C1190      C1191   1.409       .  A
C1191      F1198   1.357       .  S
C1192      C1193   1.413       .  A
C1192      H1197   1.082       .  S
C1193      C1194   1.411       .  A
C1194      F1195   1.357       .  S
C1199      C1200   1.408       .  A
C1199      C1204   1.401       .  A
C1199      H1206   1.083       .  S
C1200      C1201   1.414       .  A
C1201      C1202   1.398       .  A
C1201      F1208   1.358       .  S
C1202      C1203   1.397       .  A
C1202      H1207   1.083       .  S
C1203      C1204   1.404       .  A
C1204      F1205   1.358       .  S
C1209      C1210   1.397       .  A
C1209      C1214   1.398       .  A
C1209      H1216   1.084       .  S
C1210      C1211   1.405       .  A
C1211      C1212   1.402       .  A
C1211      F1218   1.358       .  S
C1212      C1213   1.406       .  A
C1212      H1217   1.083       .  S
C1213      C1214   1.414       .  A
C1214      F1215   1.358       .  S
C1219      C1220   1.400       .  A
C1219      C1224   1.393       .  A
C1219      H1226   1.083       .  S
C1220      C1221   1.407       .  A
C1221      C1222   1.399       .  A
C1221      F1228   1.357       .  S
C1222      C1223   1.407       .  A
C1222      H1227   1.083       .  S
C1223      C1224   1.412       .  A
C1224      F1225   1.357       .  S
C1229      C1230   1.402       .  A
C1229      C1234   1.397       .  A
C1229      H1236   1.084       .  S
C1230      C1231   1.406       .  A
C1231      C1232   1.398       .  A
C1231      F1238   1.358       .  S
C1232      C1233   1.402       .  A
C1232      H1237   1.083       .  S
C1233      C1234   1.408       .  A
C1234      F1235   1.358       .  S
C1239      C1240   1.403       .  A
C1239      C1244   1.397       .  A
C1239      H1246   1.083       .  S
C1240      C1241   1.403       .  A
C1241      C1242   1.392       .  A
C1241      F1248   1.358       .  S
C1242      C1243   1.407       .  A
C1242      H1247   1.083       .  S
C1243      C1244   1.410       .  A
C1244      F1245   1.357       .  S
