geometry optimzed in LAMMPS
_audit_creation_date              2020-12-01 
_audit_creation_method            'lammps2cif' 
_symmetry_space_group_name_H-M    'P1' 
_symmetry_Int_Tables_number       1 
_symmetry_cell_setting            triclinic 
loop_ 
_symmetry_equiv_pos_as_xyz 
  x,y,z 
_cell_length_a                    34.23905414 
_cell_length_b                    34.16712100784791 
_cell_length_c                    199.5519929588924 
_cell_angle_alpha                 90.02616914521606 
_cell_angle_beta                  90.1880593069281 
_cell_angle_gamma                 119.96276633791285 
loop_ 
_atom_site_label 
_atom_site_type_symbol 
_atom_site_fract_x 
_atom_site_fract_y 
_atom_site_fract_z 
_atom_site_charge 
O1          O  0.80957961  0.20273927  0.64017073    -0.80500
O2          O  0.78146500  0.18818311  0.60859604    -0.65200
O3          O  0.78623657  0.16685902  0.62724478    -1.11800
C4          C  0.93864237  0.20797431  0.62235284     1.06400
O5          O  0.81825172  0.15322168  0.60543903    -0.78400
O6          O  0.85006607  0.11854308  0.61488028    -0.66000
Ni7        Ni  0.76935865  0.19961929  0.63323194     1.34900
C8          C  0.83691571  0.10080436  0.62063036     0.85100
O9          O  0.72031630  0.15842099  0.61829635    -0.79000
O10         O  0.72430541  0.19869264  0.62730638    -0.89200
C11         C  0.79088676  0.16738412  0.60421035     0.84700
O12         O  0.81412869  0.25663999  0.62988028    -0.67500
O13         O  0.92655080  0.20071798  0.61620561    -0.86700
C14         C  0.81581429  0.26958477  0.62387219     0.85500
C15         C  0.70362577  0.17581380  0.62213674     1.07100
H16         H  0.86332591  0.23092096  0.61773579     0.38900
O17         O  0.84641928  0.19838594  0.61806648    -1.09400
O18         O  0.83321189  0.12195775  0.62562924    -0.66000
Ni19       Ni  0.84880948  0.18395048  0.62727875     1.26300
O20         O  0.79876915  0.24163888  0.61901680    -0.66300
O21         O  0.91175485  0.20228488  0.62713356    -0.78600
C22         C  0.83378395  0.18486416  0.64128549     0.84900
O23         O  0.84871266  0.17072080  0.63660931    -0.65700
Ni24       Ni  0.87077709  0.17737713  0.61128326     1.27400
Ni25       Ni  0.78343829  0.17870026  0.61796733     1.26100
H26         H  0.76754437  0.13488039  0.62808429     0.39400
O27         O  0.90800086  0.27464686  0.72806556    -0.80500
O28         O  0.84533073  0.22440830  0.69858547    -0.65200
O29         O  0.86536963  0.21472314  0.71722721    -1.11800
C30         C  0.00328957  0.23098555  0.71169125     1.06400
O31         O  0.89196736  0.20197532  0.69459568    -0.78400
O32         O  0.88757228  0.15081245  0.70518765    -0.66000
Ni33       Ni  0.84894499  0.24289778  0.72397443     1.34900
C34         C  0.88817676  0.13946407  0.71121596     0.85100
O35         O  0.79145347  0.20222341  0.70943121    -0.79000
O36         O  0.78859308  0.21295268  0.72054666    -0.89200
C37         C  0.86131544  0.21220233  0.69378536     0.84700
O38         O  0.86283739  0.29671283  0.71925377    -0.67500
O39         O  0.97919136  0.20479296  0.70699416    -0.86700
C40         C  0.87134490  0.30917743  0.71318511     0.85500
C41         C  0.76997496  0.20008399  0.71480526     1.07100
H42         H  0.93530018  0.27075643  0.70586903     0.38900
O43         O  0.91792761  0.23927243  0.70710696    -1.09400
O44         O  0.90976388  0.16853635  0.71584007    -0.66000
Ni45       Ni  0.92729986  0.23290105  0.71637006     1.26300
O46         O  0.87063817  0.28353154  0.70850544    -0.66300
O47         O  0.98969734  0.25237564  0.71524893    -0.78600
C48         C  0.93447659  0.25970059  0.72940147     0.84900
O49         O  0.93560025  0.22999655  0.72573806    -0.65700
Ni50       Ni  0.93319015  0.20473960  0.70127971     1.27400
Ni51       Ni  0.85456414  0.22076224  0.70801939     1.26100
H52         H  0.84862597  0.18285743  0.71824568     0.39400
O53         O  0.83803133  0.67793797  0.63810867    -0.80500
O54         O  0.87180778  0.66100454  0.60794666    -0.65200
O55         O  0.88930148  0.69003375  0.62660334    -1.11800
C56         C  0.86017192  0.80795356  0.62075441     1.06400
O57         O  0.90815221  0.73231428  0.60447240    -0.78400
O58         O  0.94877893  0.79670047  0.61410468    -0.66000
Ni59       Ni  0.85904007  0.64394543  0.63317873     1.34900
C60         C  0.96238143  0.80321991  0.62015628     0.85100
O61         O  0.89495705  0.62702184  0.61817337    -0.79000
O62         O  0.87723840  0.60542773  0.62889506    -0.89200
C63         C  0.89231316  0.69032533  0.60343446     0.84700
O64         O  0.80156468  0.61305012  0.62895181    -0.67500
O65         O  0.87308277  0.80428529  0.61491943    -0.86700
C66         C  0.78929227  0.60788969  0.62286448     0.85500
C67         C  0.89002868  0.60104991  0.62308443     1.07100
H68         H  0.83059345  0.70570278  0.61620886     0.38900
O69         O  0.86275549  0.71982462  0.61691766    -1.09400
O70         O  0.93681313  0.78233404  0.62509161    -0.66000
Ni71       Ni  0.87397017  0.73674453  0.62623094     1.26300
O72         O  0.81617367  0.62835586  0.61806843    -0.66300
O73         O  0.85710583  0.78254093  0.62563128    -0.78600
C74         C  0.86261209  0.71846921  0.64000249     0.84900
O75         O  0.88419707  0.74918351  0.63570166    -0.65700
Ni76       Ni  0.88988874  0.76580411  0.61022681     1.27400
Ni77       Ni  0.87918701  0.67356288  0.61734507     1.26100
H78         H  0.92124322  0.70352236  0.62746690     0.39400
O79         O  0.78466386  0.66369491  0.72774068    -0.80500
O80         O  0.82321208  0.66252097  0.69717840    -0.65200
O81         O  0.83961991  0.68045839  0.71614484    -1.11800
C82         C  0.83323503  0.81224659  0.71326075     1.06400
O83         O  0.85478966  0.73503700  0.69425096    -0.78400
O84         O  0.90812778  0.77914211  0.70491453    -0.66000
Ni85       Ni  0.80799582  0.63234515  0.72234585     1.34900
C86         C  0.92084738  0.78559448  0.71100299     0.85100
O87         O  0.84445617  0.62169603  0.70694281    -0.79000
O88         O  0.82993516  0.59790720  0.71768003    -0.89200
C89         C  0.83878898  0.69361249  0.69278084     0.84700
O90         O  0.75148017  0.60042980  0.71773829    -0.67500
O91         O  0.85272098  0.81364132  0.70777789    -0.86700
C92         C  0.73975034  0.59937329  0.71166315     0.85500
C93         C  0.84321637  0.59628154  0.71174810     1.07100
H94         H  0.78570129  0.70752952  0.70620110     0.38900
O95         O  0.81729101  0.71873977  0.70710113    -1.09400
O96         O  0.89289032  0.77184099  0.71586587    -0.66000
Ni97       Ni  0.82814724  0.72907405  0.71655470     1.26300
O98         O  0.76656413  0.62544568  0.70718371    -0.66300
O99         O  0.81528325  0.77734185  0.71690609    -0.78600
C100        C  0.80637762  0.70483479  0.72965314     0.84900
O101        O  0.83639661  0.73478740  0.72597927    -0.65700
Ni102      Ni  0.85230615  0.77031052  0.70152821     1.27400
Ni103      Ni  0.83028638  0.66974444  0.70675302     1.26100
H104        H  0.87129146  0.69185338  0.71700074     0.39400
O105        O  0.37308620  0.21708852  0.64055877    -0.80500
O106        O  0.38688082  0.28705122  0.61142348    -0.65200
O107        O  0.36357420  0.26403949  0.62995600    -1.11800
C108        C  0.24717568  0.11989184  0.62218564     1.06400
O109        O  0.31510759  0.25674312  0.60848660    -0.78400
O110        O  0.24874069  0.21366617  0.61753109    -0.66000
Ni111      Ni  0.41158676  0.27096133  0.63562545     1.34900
C112        C  0.24728521  0.22588658  0.62349479     0.85100
O113        O  0.42179443  0.33759910  0.62234326    -0.79000
O114        O  0.45505193  0.32637806  0.63127459    -0.89200
C115        C  0.35677232  0.28442628  0.60747972     0.84700
O116        O  0.42909620  0.23614463  0.63030127    -0.67500
O117        O  0.25482652  0.13697757  0.61630387    -0.86700
C118        C  0.43859736  0.24138170  0.62412638     0.85500
C119        C  0.45450888  0.35071346  0.62645190     1.07100
H120        H  0.34659638  0.19679151  0.61862733     0.38900
O121        O  0.33190166  0.21402337  0.61958984    -1.09400
O122        O  0.27278536  0.22614699  0.62818298    -0.66000
Ni123      Ni  0.31465638  0.20378314  0.62882427     1.26300
O124        O  0.42373686  0.26011353  0.62017873    -0.66300
O125        O  0.26626838  0.14272644  0.62746576    -0.78600
C126        C  0.33309146  0.20378022  0.64248322     0.84900
O127        O  0.30249886  0.19747559  0.63827400    -0.65700
Ni128      Ni  0.28694609  0.19770692  0.61279509     1.27400
Ni129      Ni  0.37694732  0.27608842  0.62072257     1.26100
H130        H  0.35256799  0.28326312  0.63163853     0.39400
O131        O  0.39335489  0.14215773  0.72798223    -0.80500
O132        O  0.39876136  0.20896032  0.69909714    -0.65200
O133        O  0.37354336  0.18771906  0.71783695    -1.11800
C134        C  0.25104520  0.04829848  0.71095050     1.06400
O135        O  0.32680535  0.18329058  0.69682146    -0.78400
O136        O  0.27029535  0.15928678  0.70707695    -0.66000
Ni137      Ni  0.42036337  0.20220942  0.72421149     1.34900
C138        C  0.26388711  0.15764699  0.71334399     0.85100
O139        O  0.43540748  0.26253358  0.71008808    -0.79000
O140        O  0.45066989  0.26354696  0.72111377    -0.89200
C141        C  0.36747891  0.20092146  0.69493151     0.84700
O142        O  0.45891513  0.18900106  0.71892913    -0.67500
O143        O  0.25106101  0.07098471  0.70586370    -0.86700
C144        C  0.45996797  0.18064687  0.71275036     0.85500
C145        C  0.45593071  0.28318417  0.71547498     1.07100
H146        H  0.35319629  0.12062216  0.70577303     0.38900
O147        O  0.34073982  0.13861808  0.70744318    -1.09400
O148        O  0.28160095  0.14237493  0.71744046    -0.66000
Ni149      Ni  0.32804102  0.12575423  0.71675457     1.26300
O150        O  0.43266583  0.18110260  0.70845684    -0.66300
O151        O  0.28228310  0.06402807  0.71534492    -0.78600
C152        C  0.35240636  0.11620875  0.72960323     0.84900
O153        O  0.32046325  0.11448145  0.72614435    -0.65700
Ni154      Ni  0.29175082  0.12816812  0.70169822     1.27400
Ni155      Ni  0.38832345  0.20024340  0.70857005     1.26100
H156        H  0.35923690  0.20472790  0.71917078     0.39400
O157        O  0.19048386  0.35939210  0.86278213    -0.80500
O158        O  0.23038730  0.36351534  0.89319614    -0.65200
O159        O  0.22970869  0.34780211  0.87434690    -1.11800
C160        C  0.08499907  0.22081906  0.87869992     1.06400
O161        O  0.20690771  0.29140082  0.89527376    -0.78400
O162        O  0.17844439  0.22783669  0.88530120    -0.66000
Ni163      Ni  0.24098567  0.39647378  0.86847472     1.34900
C164        C  0.19282047  0.22870734  0.87940611     0.85100
O165        O  0.29123618  0.40837846  0.88369215    -0.79000
O166        O  0.29353368  0.43767916  0.87351731    -0.89200
C167        C  0.22699426  0.33277711  0.89708736     0.84700
O168        O  0.20461932  0.41642545  0.87289914    -0.67500
O169        O  0.09729234  0.22448399  0.88484252    -0.86700
C170        C  0.19630709  0.41770838  0.87906028     0.85500
C171        C  0.31096064  0.43865550  0.87922706     1.07100
H172        H  0.14994591  0.31880779  0.88407580     0.38900
O173        O  0.17074082  0.30780287  0.88342133    -1.09400
O174        O  0.19449230  0.25590343  0.87490416    -0.66000
Ni175      Ni  0.17050022  0.29627591  0.87406088     1.26300
O176        O  0.20706103  0.39858096  0.88357134    -0.66300
O177        O  0.11051591  0.24568049  0.87401788    -0.78600
C178        C  0.18058216  0.32065886  0.86058193     0.84900
O179        O  0.17325869  0.28903404  0.86460244    -0.65700
Ni180      Ni  0.15314046  0.25976211  0.88968913     1.27400
Ni181      Ni  0.23084001  0.35788595  0.88374971     1.26100
H182        H  0.25156532  0.33861040  0.87335335     0.39400
O183        O  0.15452956  0.37930861  0.77286955    -0.80500
O184        O  0.20122320  0.38689069  0.80391558    -0.65200
O185        O  0.18927752  0.36276509  0.78502208    -1.11800
C186        C  0.04719284  0.24262931  0.78955294     1.06400
O187        O  0.15692738  0.31582373  0.80726508    -0.78400
O188        O  0.15801423  0.26779551  0.79664392    -0.66000
Ni189      Ni  0.20714300  0.41094318  0.77866525     1.34900
C190        C  0.15747144  0.25714964  0.79054647     0.85100
O191        O  0.25901896  0.41988982  0.79374920    -0.79000
O192        O  0.26297559  0.44736169  0.78339991    -0.89200
C193        C  0.18596785  0.35675798  0.80844322     0.84700
O194        O  0.17977355  0.44085572  0.78307770    -0.67500
O195        O  0.06829729  0.23854956  0.79450336    -0.86700
C196        C  0.17512774  0.44633013  0.78927005     0.85500
C197        C  0.28061731  0.44743486  0.78904991     1.07100
H198        H  0.11526001  0.34671753  0.79591154     0.38900
O199        O  0.13271555  0.33256449  0.79475451    -1.09400
O200        O  0.14132557  0.27096558  0.78594453    -0.66000
Ni201      Ni  0.12680312  0.31941323  0.78540818     1.26300
O202        O  0.18163392  0.42451346  0.79389992    -0.66300
O203        O  0.06375349  0.27776081  0.78597651    -0.78600
C204        C  0.12968848  0.33718908  0.77171883     0.84900
O205        O  0.12253566  0.30798324  0.77611924    -0.65700
Ni206      Ni  0.11504814  0.28104930  0.80040975     1.27400
Ni207      Ni  0.19599235  0.37651888  0.79441171     1.26100
H208        H  0.20621766  0.34786110  0.78399360     0.39400
O209        O  0.64665839  0.81649432  0.86242635    -0.80500
O210        O  0.62808228  0.84925510  0.89280799    -0.65200
O211        O  0.65519649  0.86332534  0.87427659    -1.11800
C212        C  0.76828724  0.82746323  0.88058043     1.06400
O213        O  0.69910170  0.88445150  0.89625800    -0.78400
O214        O  0.76556419  0.91550693  0.88736630    -0.66000
Ni215      Ni  0.60796910  0.82742826  0.86813548     1.34900
C216        C  0.76868990  0.93380385  0.88172246     0.85100
O217        O  0.59687309  0.87444155  0.88248253    -0.79000
O218        O  0.56417824  0.83586473  0.87307778    -0.89200
C219        C  0.65801799  0.87354679  0.89702099     0.84700
O220        O  0.59092140  0.77162837  0.87247334    -0.67500
O221        O  0.76015052  0.83253695  0.88666569    -0.86700
C222        C  0.58000407  0.76201432  0.87856062     0.85500
C223        C  0.56485815  0.85845069  0.87822874     1.07100
H224        H  0.66807369  0.80302322  0.88437365     0.38900
O225        O  0.68358064  0.83553289  0.88400390    -1.09400
O226        O  0.74544250  0.91269852  0.87659012    -0.66000
Ni227      Ni  0.70270848  0.84973633  0.87486480     1.26300
O228        O  0.59217935  0.79224568  0.88306014    -0.66300
O229        O  0.74971597  0.83488640  0.87557762    -0.78600
C230        C  0.68789174  0.84273235  0.86101200     0.84900
O231        O  0.71708498  0.86305614  0.86558230    -0.65700
Ni232      Ni  0.72734369  0.85746533  0.89105631     1.27400
Ni233      Ni  0.63993561  0.85490193  0.88350095     1.26100
H234        H  0.66713796  0.89477299  0.87314856     0.39400
O235        O  0.66129443  0.78418469  0.77341570    -0.80500
O236        O  0.64704913  0.82012380  0.80394528    -0.65200
O237        O  0.67707264  0.83772079  0.78530068    -1.11800
C238        C  0.79600344  0.81579718  0.79159063     1.06400
O239        O  0.71818731  0.86609946  0.80685007    -0.78400
O240        O  0.77409702  0.90623837  0.79657969    -0.66000
Ni241      Ni  0.63196166  0.81131759  0.77844052     1.34900
C242        C  0.78324252  0.91283739  0.79039707     0.85100
O243        O  0.61339985  0.84400453  0.79356664    -0.79000
O244        O  0.59810089  0.83634006  0.78252343    -0.89200
C245        C  0.67687516  0.84178097  0.80838185     0.84700
O246        O  0.59535268  0.75493811  0.78275077    -0.67500
O247        O  0.79729965  0.83952445  0.79662588    -0.86700
C248        C  0.59164459  0.74055887  0.78871888     0.85500
C249        C  0.59213255  0.84628672  0.78846763     1.07100
H250        H  0.69422619  0.78286999  0.79677745     0.38900
O251        O  0.70662696  0.81396796  0.79539443    -1.09400
O252        O  0.76835038  0.88088579  0.78615824    -0.66000
Ni253      Ni  0.72070312  0.81862286  0.78612406     1.26300
O254        O  0.61566304  0.76506961  0.79357506    -0.66300
O255        O  0.76377238  0.79930765  0.78737578    -0.78600
C256        C  0.70304799  0.79812087  0.77251096     0.84900
O257        O  0.73235368  0.82209986  0.77681756    -0.65700
Ni258      Ni  0.75502723  0.85136219  0.80134258     1.27400
Ni259      Ni  0.65980062  0.82845955  0.79455618     1.26100
H260        H  0.69243791  0.86990631  0.78452513     0.39400
O261        O  0.19265980  0.82098134  0.86277065    -0.80500
O262        O  0.13989106  0.74264901  0.89151148    -0.65200
O263        O  0.13545552  0.77033770  0.87307688    -1.11800
C264        C  0.16285924  0.91197435  0.88201026     1.06400
O265        O  0.09752080  0.77145308  0.89463084    -0.78400
O266        O  0.07101287  0.81458514  0.88612642    -0.66000
Ni267      Ni  0.17274574  0.76294550  0.86671315     1.34900
C268        C  0.05802875  0.80653642  0.88006051     0.85100
O269        O  0.12431398  0.69469972  0.88026735    -0.79000
O270        O  0.15530951  0.70357702  0.87005295    -0.89200
C271        C  0.11484909  0.74683206  0.89577591     0.84700
O272        O  0.22691191  0.79014243  0.87186524    -0.67500
O273        O  0.15198823  0.89170580  0.88763044    -0.86700
C274        C  0.23356612  0.78904160  0.87809188     0.85500
C275        C  0.13586984  0.67984998  0.87521914     1.07100
H276        H  0.18658807  0.83485296  0.88471902     0.38900
O277        O  0.15475477  0.81745735  0.88370595    -1.09400
O278        O  0.08383192  0.80969685  0.87524715    -0.66000
Ni279      Ni  0.14780792  0.83101456  0.87458802     1.26300
O280        O  0.20208761  0.77386635  0.88237173    -0.66300
O281        O  0.16151131  0.89247856  0.87645495    -0.78600
C282        C  0.16646399  0.83498375  0.86086713     0.84900
O283        O  0.14217265  0.84051030  0.86515923    -0.65700
Ni284      Ni  0.12579666  0.83085947  0.89072365     1.27400
Ni285      Ni  0.13902322  0.75572469  0.88221741     1.26100
H286        H  0.10459944  0.75189974  0.87159234     0.39400
O287        O  0.25372692  0.89528213  0.77317923    -0.80500
O288        O  0.21632370  0.82968225  0.80342495    -0.65200
O289        O  0.20081668  0.85119212  0.78484972    -1.11800
C290        C  0.21987772  0.98847009  0.79262961     1.06400
O291        O  0.17019901  0.85401591  0.80650425    -0.78400
O292        O  0.13094850  0.87315818  0.79669632    -0.66000
Ni293      Ni  0.22952345  0.83769004  0.77771478     1.34900
C294        C  0.12423295  0.87821684  0.79061066     0.85100
O295        O  0.19338253  0.77636208  0.79221043    -0.79000
O296        O  0.20709284  0.77804534  0.78115923    -0.89200
C297        C  0.19499290  0.83745471  0.80798238     0.84700
O298        O  0.28610180  0.85839071  0.78207833    -0.67500
O299        O  0.19595728  0.96381403  0.79747107    -0.86700
C300        C  0.29877279  0.86369783  0.78816971     0.85500
C301        C  0.19429635  0.75737425  0.78672598     1.07100
H302        H  0.25413511  0.91767370  0.79696559     0.38900
O303        O  0.22324091  0.89955160  0.79548106    -1.09400
O304        O  0.15617802  0.89785938  0.78645465    -0.66000
Ni305      Ni  0.21874862  0.91326112  0.78635462     1.26300
O306        O  0.27255729  0.85780173  0.79307278    -0.66300
O307        O  0.23738863  0.97489511  0.78826960    -0.78600
C308        C  0.23655923  0.92055892  0.77251250     0.84900
O309        O  0.21473034  0.92555911  0.77718455    -0.65700
Ni310      Ni  0.18508911  0.90791574  0.80162230     1.27400
Ni311      Ni  0.20903531  0.83835266  0.79399833     1.26100
H312        H  0.16886538  0.83439066  0.78390242     0.39400
O313        O  0.51404328  0.51599336  0.53055599    -0.80500
O314        O  0.48937869  0.48373631  0.56130386    -0.65200
O315        O  0.46745832  0.48116952  0.54251798    -1.11800
C316        C  0.48368163  0.62534195  0.54737540     1.06400
O317        O  0.43685784  0.50147128  0.56339957    -0.78400
O318        O  0.39896425  0.52656340  0.55382684    -0.66000
Ni319      Ni  0.49996165  0.46558541  0.53630936     1.34900
C320        C  0.38525901  0.51393539  0.54789192     0.85100
O321        O  0.47282284  0.42261297  0.55196179    -0.79000
O322        O  0.48877155  0.41301084  0.54139855    -0.89200
C323        C  0.45920017  0.48244832  0.56509377     0.84700
O324        O  0.55797115  0.50052106  0.54027434    -0.67500
O325        O  0.47381878  0.61056204  0.55337405    -0.86700
C326        C  0.57160987  0.51417302  0.54619618     0.85500
C327        C  0.47905556  0.39998626  0.54746497     1.07100
H328        H  0.51945959  0.56266809  0.55222051     0.38900
O329        O  0.48791807  0.54086882  0.55156932    -1.09400
O330        O  0.41101647  0.51695517  0.54308674    -0.66000
Ni331      Ni  0.47543820  0.54109528  0.54221952     1.26300
O332        O  0.54502456  0.50792470  0.55103850    -0.66300
O333        O  0.48475023  0.60182104  0.54244559    -0.78600
C334        C  0.48702041  0.52871402  0.52851506     0.84900
O335        O  0.46498777  0.53838569  0.53267884    -0.65700
Ni336      Ni  0.45647531  0.55532692  0.55804850     1.27400
Ni337      Ni  0.48037230  0.48188397  0.55186629     1.26100
H338        H  0.43588499  0.45948816  0.54186487     0.39400
O339        O  0.51892863  0.52562370  0.44061304    -0.80500
O340        O  0.51306768  0.48768183  0.47129015    -0.65200
O341        O  0.47734840  0.48704004  0.45298580    -1.11800
C342        C  0.49742899  0.63134202  0.45890485     1.06400
O343        O  0.46410565  0.50839856  0.47404314    -0.78400
O344        O  0.42055663  0.53607082  0.46615411    -0.66000
Ni345      Ni  0.50194600  0.47092562  0.44569909     1.34900
C346        C  0.40130766  0.52024185  0.46058109     0.85100
O347        O  0.48463565  0.42455129  0.46125831    -0.79000
O348        O  0.48574912  0.41459535  0.45007876    -0.89200
C349        C  0.49219798  0.49646106  0.47578444     0.84700
O350        O  0.56241389  0.49615071  0.44890322    -0.67500
O351        O  0.49553823  0.61904109  0.46499587    -0.86700
C352        C  0.58075956  0.50800736  0.45465122     0.85500
C353        C  0.48059547  0.40024678  0.45612272     1.07100
H354        H  0.53841175  0.56735079  0.46226860     0.38900
O355        O  0.50629768  0.54648965  0.46214788    -1.09400
O356        O  0.42257221  0.52128771  0.45529770    -0.66000
Ni357      Ni  0.48606552  0.54674115  0.45325249     1.26300
O358        O  0.55934526  0.50789790  0.45987791    -0.66300
O359        O  0.49466387  0.60680738  0.45389246    -0.78600
C360        C  0.49558871  0.54476342  0.43956546     0.84900
O361        O  0.46999832  0.54566824  0.44406820    -0.65700
Ni362      Ni  0.48096563  0.56317147  0.46930287     1.27400
Ni363      Ni  0.49641135  0.48591394  0.46195420     1.26100
H364        H  0.44534406  0.46585493  0.45282392     0.39400
O365        O  0.52734449  0.05484776  0.52825431    -0.80500
O366        O  0.57022354  0.09012096  0.55963523    -0.65200
O367        O  0.55253487  0.05082687  0.54133124    -1.11800
C368        C  0.40390295  0.94648201  0.54898069     1.06400
O369        O  0.53822512  0.01961344  0.56334096    -0.78400
O370        O  0.49969594  0.94835188  0.55477766    -0.66000
Ni371      Ni  0.56891780  0.09621626  0.53462878     1.34900
C372        C  0.50438523  0.93902356  0.54877241     0.85100
O373        O  0.62483504  0.11560382  0.54915696    -0.79000
O374        O  0.61515541  0.14449711  0.53980341    -0.89200
C375        C  0.56459456  0.06179722  0.56418698     0.84700
O376        O  0.52499060  0.10957563  0.53787835    -0.67500
O377        O  0.42226349  0.95260949  0.55474478    -0.86700
C378        C  0.52535277  0.12507038  0.54367600     0.85500
C379        C  0.63900035  0.14680692  0.54482645     1.07100
H380        H  0.48314366  0.04578831  0.55203608     0.38900
O381        O  0.49945740  0.02979428  0.55138067    -1.09400
O382        O  0.50141581  0.96010045  0.54372305    -0.66000
Ni383      Ni  0.48864578  0.00843716  0.54233278     1.26300
O384        O  0.54500219  0.11886343  0.54871532    -0.66300
O385        O  0.42530431  0.96695638  0.54370013    -0.78600
C386        C  0.49556006  0.01422558  0.52793579     0.84900
O387        O  0.47891586  0.98980676  0.53310063    -0.65700
Ni388      Ni  0.48138292  0.98784412  0.55859075     1.27400
Ni389      Ni  0.56203099  0.07269394  0.55039152     1.26100
H390        H  0.56896994  0.03504394  0.54057739     0.39400
O391        O  0.41988261  0.00674140  0.44028963    -0.80500
O392        O  0.46151528  0.02081946  0.47094864    -0.65200
O393        O  0.45428625  0.99111667  0.45238643    -1.11800
C394        C  0.31173705  0.87057720  0.45656117     1.06400
O395        O  0.41582429  0.95102147  0.47478185    -0.78400
O396        O  0.42122459  0.90039439  0.46469926    -0.66000
Ni397      Ni  0.47501060  0.03606538  0.44555842     1.34900
C398        C  0.42388094  0.88931313  0.45871329     0.85100
O399        O  0.52203441  0.05210012  0.46103498    -0.79000
O400        O  0.53225677  0.06914102  0.45004229    -0.89200
C401        C  0.44470928  0.99249575  0.47570475     0.84700
O402        O  0.45541558  0.07411145  0.44946350    -0.67500
O403        O  0.33162671  0.86815515  0.46181125    -0.86700
C404        C  0.44507711  0.07943953  0.45536485     0.85500
C405        C  0.54685848  0.07383969  0.45606113     1.07100
H406        H  0.37734364  0.97722277  0.46252562     0.38900
O407        O  0.39531711  0.96307667  0.46174842    -1.09400
O408        O  0.40770213  0.90035268  0.45375744    -0.66000
Ni409      Ni  0.39196524  0.94754372  0.45251179     1.26300
O410        O  0.44379497  0.05518468  0.46030401    -0.66300
O411        O  0.32894925  0.90504037  0.45282998    -0.78600
C412        C  0.39514422  0.96479729  0.43902347     0.84900
O413        O  0.39035522  0.93522406  0.44323768    -0.65700
Ni414      Ni  0.37635960  0.91322956  0.46779606     1.27400
Ni415      Ni  0.45868761  0.00788085  0.46157798     1.26100
H416        H  0.47147682  0.97591933  0.45184498     0.39400
O417        O  0.96019954  0.52724684  0.52710772    -0.80500
O418        O  0.96664268  0.56241894  0.55772621    -0.65200
O419        O  0.98327174  0.57960659  0.53886661    -1.11800
C420        C  0.10092132  0.54638041  0.54270407     1.06400
O421        O  0.03985589  0.60504697  0.55982233    -0.78400
O422        O  0.09933262  0.63939990  0.54944893    -0.66000
Ni423      Ni  0.93322298  0.55231007  0.53284102     1.34900
C424        C  0.10101426  0.65138791  0.54337319     0.85100
O425        O  0.92563149  0.58492698  0.54852853    -0.79000
O426        O  0.90103882  0.57479245  0.53788817    -0.89200
C427        C  0.99879743  0.58779507  0.56161587     0.84700
O428        O  0.90139327  0.49524359  0.53714717    -0.67500
O429        O  0.10161911  0.56045662  0.54866893    -0.86700
C430        C  0.90202220  0.48084051  0.54298610     0.85500
C431        C  0.89918819  0.58463626  0.54399749     1.07100
H432        H  0.00533967  0.52159006  0.54860173     0.38900
O433        O  0.01870002  0.55361473  0.54778671    -1.09400
O434        O  0.07559453  0.62482656  0.53879283    -0.66000
Ni435      Ni  0.02845708  0.56219506  0.53833504     1.26300
O436        O  0.92782575  0.50604949  0.54763843    -0.66300
O437        O  0.07338004  0.54412709  0.53818746    -0.78600
C438        C  0.00015903  0.54678078  0.52486858     0.84900
O439        O  0.03364807  0.56881129  0.52875702    -0.65700
Ni440      Ni  0.06853576  0.58208314  0.55382639     1.27400
Ni441      Ni  0.97252868  0.56950040  0.54827031     1.26100
H442        H  0.99743289  0.61179985  0.53814844     0.39400
O443        O  0.92059480  0.39645091  0.43913953    -0.80500
O444        O  0.92441830  0.44910354  0.46889876    -0.65200
O445        O  0.94519951  0.45818114  0.44995966    -1.11800
C446        C  0.06951261  0.44175634  0.45506650     1.06400
O447        O  0.99714615  0.49464550  0.47105715    -0.78400
O448        O  0.04683041  0.53118003  0.46003776    -0.66000
Ni449      Ni  0.89712236  0.43050165  0.44365699     1.34900
C450        C  0.05339061  0.53643587  0.45377028     0.85100
O451        O  0.88472773  0.46743290  0.45857009    -0.79000
O452        O  0.86930287  0.46215679  0.44752337    -0.89200
C453        C  0.95633685  0.47282396  0.47297269     0.84700
O454        O  0.85880021  0.37787831  0.44869962    -0.67500
O455        O  0.07177123  0.46566198  0.46013164    -0.86700
C456        C  0.85963085  0.36417279  0.45458557     0.85500
C457        C  0.86404802  0.47176420  0.45352321     1.07100
H458        H  0.96900110  0.40884356  0.46139072     0.38900
O459        O  0.98047702  0.43934184  0.45979547    -1.09400
O460        O  0.03691901  0.50340514  0.44966184    -0.66000
Ni461      Ni  0.99001456  0.44033066  0.45034811     1.26300
O462        O  0.88844917  0.38884172  0.45901099    -0.66300
O463        O  0.03556313  0.42369863  0.45114936    -0.78600
C464        C  0.96076559  0.40810540  0.43745988     0.84900
O465        O  0.99432531  0.43697955  0.44084336    -0.65700
Ni466      Ni  0.03131383  0.47848687  0.46517913     1.27400
Ni467      Ni  0.93241446  0.45282577  0.45933597     1.26100
H468        H  0.95999756  0.49005746  0.44895066     0.39400
O469        O  0.12388881  0.26008578  0.30505543    -0.80500
O470        O  0.15133589  0.23227041  0.27526262    -0.65200
O471        O  0.17381043  0.26735615  0.29360483    -1.11800
C472        C  0.14716664  0.38467936  0.28644513     1.06400
O473        O  0.19589714  0.30163502  0.27151978    -0.78400
O474        O  0.23406375  0.37155271  0.28046647    -0.66000
Ni475      Ni  0.14380070  0.22379740  0.30050200     1.34900
C476        C  0.24843845  0.37869359  0.28647627     0.85100
O477        O  0.17467272  0.20013339  0.28565675    -0.79000
O478        O  0.16105502  0.18332854  0.29659866    -0.89200
C479        C  0.17643247  0.25880626  0.27075452     0.84700
O480        O  0.08571378  0.19215393  0.29646400    -0.67500
O481        O  0.15743372  0.37769688  0.28056677    -0.86700
C482        C  0.07205409  0.18738909  0.29044924     0.85500
C483        C  0.17174401  0.17654651  0.29076844     1.07100
H484        H  0.11613146  0.28277613  0.28296601     0.38900
O485        O  0.14821075  0.29566689  0.28362718    -1.09400
O486        O  0.22370285  0.35847546  0.29150177    -0.66000
Ni487      Ni  0.16055515  0.31526436  0.29277704     1.26300
O488        O  0.09816041  0.20617989  0.28553318    -0.66300
O489        O  0.14639496  0.36236875  0.29160943    -0.78600
C490        C  0.14800577  0.30141007  0.30661618     0.84900
O491        O  0.17085719  0.33045796  0.30216677    -0.65700
Ni492      Ni  0.17581045  0.33785916  0.27650277     1.27400
Ni493      Ni  0.16152046  0.24796275  0.28449083     1.26100
H494        H  0.20579395  0.28011407  0.29435641     0.39400
O495        O  0.06324768  0.27445339  0.39460019    -0.80500
O496        O  0.09631288  0.26422646  0.36374829    -0.65200
O497        O  0.11488187  0.28988147  0.38258159    -1.11800
C498        C  0.10058300  0.41466254  0.37821053     1.06400
O499        O  0.12789960  0.33586539  0.36035662    -0.78400
O500        O  0.18038284  0.38089611  0.37107549    -0.66000
Ni501      Ni  0.08732580  0.24364313  0.38920426     1.34900
C502        C  0.19178436  0.39128203  0.37716304     0.85100
O503        O  0.12123021  0.22926964  0.37381361    -0.79000
O504        O  0.11006623  0.20914253  0.38469448    -0.89200
C505        C  0.11144084  0.29402716  0.35915344     0.84700
O506        O  0.03008932  0.20908627  0.38493291    -0.67500
O507        O  0.12576731  0.41723819  0.37336553    -0.86700
C508        C  0.01641134  0.20518947  0.37890956     0.85500
C509        C  0.12200501  0.20590111  0.37874303     1.07100
H510        H  0.05780548  0.30995208  0.37190821     0.38900
O511        O  0.08927125  0.32212140  0.37301700    -1.09400
O512        O  0.16253193  0.38106869  0.38177986    -0.66000
Ni513      Ni  0.09857430  0.33539455  0.38236743     1.26300
O514        O  0.04148571  0.22941160  0.37412740    -0.66300
O515        O  0.08053961  0.37983454  0.38183637    -0.78600
C516        C  0.08184894  0.31651470  0.39594391     0.84900
O517        O  0.10658170  0.34596391  0.39172540    -0.65700
Ni518      Ni  0.12551153  0.37278465  0.36736034     1.27400
Ni519      Ni  0.10460116  0.27513919  0.37324879     1.26100
H520        H  0.14695761  0.30373383  0.38334587     0.39400
O521        O  0.11547564  0.79393325  0.30574615    -0.80500
O522        O  0.08063539  0.77480030  0.27551391    -0.65200
O523        O  0.08150428  0.74691932  0.29385885    -1.11800
C524        C  0.23196977  0.78340551  0.28868223     1.06400
O525        O  0.10771767  0.73088575  0.27241428    -0.78400
O526        O  0.14001574  0.69481955  0.28150021    -0.66000
Ni527      Ni  0.06205659  0.77387573  0.30045468     1.34900
C528        C  0.12803716  0.67776378  0.28730353     0.85100
O529        O  0.01786105  0.74663879  0.28487516    -0.79000
O530        O  0.00663607  0.75619514  0.29569515    -0.89200
C531        C  0.08459229  0.74999698  0.27121131     0.84700
O532        O  0.08948477  0.83335437  0.29687934    -0.67500
O533        O  0.21835428  0.77547634  0.28258933    -0.86700
C534        C  0.10232899  0.84898522  0.29104384     0.85500
C535        C  0.99329768  0.74716351  0.28961455     1.07100
H536        H  0.16022523  0.80969852  0.28446950     0.38900
O537        O  0.14159186  0.77727456  0.28479966    -1.09400
O538        O  0.12660675  0.69985487  0.29235197    -0.66000
Ni539      Ni  0.14368233  0.76228462  0.29395105     1.26300
O540        O  0.09891926  0.82454208  0.28605510    -0.66300
O541        O  0.20644787  0.77899609  0.29363465    -0.78600
C542        C  0.13255335  0.77026682  0.30762066     0.84900
O543        O  0.14275977  0.74928367  0.30334716    -0.65700
Ni544      Ni  0.16201455  0.75369327  0.27788188     1.27400
Ni545      Ni  0.07992093  0.76187170  0.28471593     1.26100
H546        H  0.06267283  0.71454780  0.29430619     0.39400
O547        O  0.18450095  0.88178929  0.39409927    -0.80500
O548        O  0.13376388  0.84170504  0.36378813    -0.65200
O549        O  0.14493531  0.82667037  0.38257074    -1.11800
C550        C  0.28784878  0.84755907  0.37643152     1.06400
O551        O  0.15605236  0.79247703  0.36187968    -0.78400
O552        O  0.18413571  0.75776835  0.37128815    -0.66000
Ni553      Ni  0.12754546  0.85490041  0.38923179     1.34900
C554        C  0.17852303  0.74892738  0.37748939     0.85100
O555        O  0.07585922  0.82055619  0.37413685    -0.79000
O556        O  0.06856298  0.82986394  0.38515005    -0.89200
C557        C  0.14090617  0.81726768  0.35974474     0.84700
O558        O  0.14761507  0.91074745  0.38471713    -0.67500
O559        O  0.26928736  0.83161951  0.37075428    -0.86700
C560        C  0.15824730  0.92418952  0.37871537     0.85500
C561        C  0.05242142  0.81893508  0.37921146     1.07100
H562        H  0.21817350  0.87969246  0.37157845     0.38900
O563        O  0.19908414  0.84827758  0.37274032    -1.09400
O564        O  0.18766752  0.77865906  0.38195412    -0.66000
Ni565      Ni  0.20671826  0.84187684  0.38203830     1.26300
O566        O  0.15754571  0.89881774  0.37397956    -0.66300
O567        O  0.26835598  0.85614186  0.38117716    -0.78600
C568        C  0.20999417  0.86537562  0.39534596     0.84900
O569        O  0.21254306  0.83789648  0.39139572    -0.65700
Ni570      Ni  0.21194092  0.81352786  0.36656874     1.27400
Ni571      Ni  0.13774263  0.83506736  0.37327990     1.26100
H572        H  0.12669834  0.79465280  0.38341277     0.39400
O573        O  0.66496979  0.79753311  0.30500593    -0.80500
O574        O  0.68059935  0.84872394  0.27450259    -0.65200
O575        O  0.65591647  0.83761033  0.29325637    -1.11800
C576        C  0.53747417  0.69133316  0.28692259     1.06400
O577        O  0.60849605  0.82093676  0.27193701    -0.78400
O578        O  0.54161887  0.78532874  0.28105431    -0.66000
Ni579      Ni  0.70235050  0.84953898  0.29959666     1.34900
C580        C  0.53993030  0.79824765  0.28696453     0.85100
O581        O  0.71790855  0.90499384  0.28474143    -0.79000
O582        O  0.74441565  0.90370613  0.29498965    -0.89200
C583        C  0.65008990  0.84582603  0.27057191     0.84700
O584        O  0.72441831  0.81500010  0.29523822    -0.67500
O585        O  0.54377260  0.70635140  0.28092754    -0.86700
C586        C  0.73047515  0.81031436  0.28909039     0.85500
C587        C  0.74665393  0.92325083  0.28943999     1.07100
H588        H  0.63642270  0.76306768  0.28284299     0.38900
O589        O  0.62330027  0.78206778  0.28352551    -1.09400
O590        O  0.56500780  0.79871945  0.29171311    -0.66000
Ni591      Ni  0.60688710  0.77692040  0.29276742     1.26300
O592        O  0.71445499  0.82332955  0.28438208    -0.66300
O593        O  0.55853283  0.71550847  0.29199824    -0.78600
C594        C  0.62397593  0.78204980  0.30659468     0.84900
O595        O  0.59447672  0.77487082  0.30216236    -0.65700
Ni596      Ni  0.57793329  0.76459729  0.27679820     1.27400
Ni597      Ni  0.67066208  0.84360799  0.28394300     1.26100
H598        H  0.64451475  0.85770204  0.29428505     0.39400
O599        O  0.66332848  0.76159237  0.39420934    -0.80500
O600        O  0.67377148  0.79635853  0.36370646    -0.65200
O601        O  0.64679601  0.79579059  0.38232203    -1.11800
C602        C  0.52166252  0.65223222  0.37745537     1.06400
O603        O  0.60272602  0.77286055  0.36109891    -0.78400
O604        O  0.54399255  0.75821999  0.37078125    -0.66000
Ni605      Ni  0.69222127  0.81683442  0.38904385     1.34900
C606        C  0.53932419  0.76593310  0.37685726     0.85100
O607        O  0.71130563  0.86000567  0.37348851    -0.79000
O608        O  0.72446789  0.87412898  0.38454520    -0.89200
C609        C  0.64312088  0.78670529  0.35934145     0.84700
O610        O  0.73048451  0.79756937  0.38507150    -0.67500
O611        O  0.52388349  0.66950692  0.37170002    -0.86700
C612        C  0.73231085  0.78204820  0.37936535     0.85500
C613        C  0.73137661  0.88668675  0.37841792     1.07100
H614        H  0.62458752  0.71637741  0.37225179     0.38900
O615        O  0.61322546  0.73675869  0.37307166    -1.09400
O616        O  0.55588020  0.75468877  0.38170928    -0.66000
Ni617      Ni  0.59924295  0.73400940  0.38238866     1.26300
O618        O  0.70553032  0.77713106  0.37456240    -0.66300
O619        O  0.55108930  0.67229170  0.38204048    -0.78600
C620        C  0.62200854  0.73728017  0.39580482     0.84900
O621        O  0.59068132  0.73234068  0.39186341    -0.65700
Ni622      Ni  0.56581619  0.72237990  0.36676926     1.27400
Ni623      Ni  0.66270620  0.79784660  0.37311903     1.26100
H624        H  0.63353234  0.81485642  0.38272888     0.39400
O625        O  0.83108441  0.65655468  0.19587750    -0.80500
O626        O  0.88466049  0.65753808  0.22565257    -0.65200
O627        O  0.87275063  0.64217090  0.20677166    -1.11800
C628        C  0.72276294  0.52686509  0.21214340     1.06400
O629        O  0.84843467  0.58392020  0.22771169    -0.78400
O630        O  0.80762817  0.52093897  0.21812283    -0.66000
Ni631      Ni  0.88417904  0.69195557  0.20120852     1.34900
C632        C  0.82443462  0.52073588  0.21246486     0.85100
O633        O  0.94193810  0.69775300  0.21552115    -0.79000
O634        O  0.93922911  0.73127651  0.20596447    -0.89200
C635        C  0.87718069  0.62428057  0.22932727     0.84700
O636        O  0.85085124  0.71278935  0.20628001    -0.67500
O637        O  0.73527133  0.53376052  0.21827604    -0.86700
C638        C  0.85008169  0.71792142  0.21256266     0.85500
C639        C  0.95982184  0.72957216  0.21122060     1.07100
H640        H  0.79951798  0.62342934  0.21690462     0.38900
O641        O  0.81639858  0.60801636  0.21624863    -1.09400
O642        O  0.83160566  0.54970622  0.20789083    -0.66000
Ni643      Ni  0.81173140  0.59370149  0.20692004     1.26300
O644        O  0.86415759  0.69963109  0.21671856    -0.66300
O645        O  0.74965241  0.54580883  0.20725352    -0.78600
C646        C  0.81903718  0.61762302  0.19351072     0.84900
O647        O  0.81122972  0.58515094  0.19741679    -0.65700
Ni648      Ni  0.79296518  0.56085710  0.22266793     1.27400
Ni649      Ni  0.87938031  0.65237080  0.21617083     1.26100
H650        H  0.89230444  0.63090616  0.20535685     0.39400
O651        O  0.78805460  0.68086509  0.10686966    -0.80500
O652        O  0.84743731  0.69838514  0.13712468    -0.65200
O653        O  0.83134688  0.67010239  0.11832031    -1.11800
C654        C  0.69042217  0.54734861  0.12547374     1.06400
O655        O  0.82502134  0.62740269  0.13914692    -0.78400
O656        O  0.79148020  0.56146506  0.13026326    -0.66000
Ni657      Ni  0.84377155  0.71581961  0.11181516     1.34900
C658        C  0.79981108  0.55850270  0.12416246     0.85100
O659        O  0.90242466  0.73334699  0.12645485    -0.79000
O660        O  0.90181810  0.75469232  0.11581579    -0.89200
C661        C  0.83974713  0.66723960  0.14126381     0.84700
O662        O  0.81773151  0.74601339  0.11651035    -0.67500
O663        O  0.70876562  0.55364436  0.13124735    -0.86700
C664        C  0.81314896  0.75076478  0.12272629     0.85500
C665        C  0.92176754  0.75832977  0.12139425     1.07100
H666        H  0.76085675  0.65075417  0.12951358     0.38900
O667        O  0.77974871  0.63806368  0.12843723    -1.09400
O668        O  0.79291266  0.57961328  0.11948896    -0.66000
Ni669      Ni  0.77046446  0.62148295  0.11919172     1.26300
O670        O  0.82117580  0.72972683  0.12727170    -0.66300
O671        O  0.70990466  0.57230795  0.12041291    -0.78600
C672        C  0.76579044  0.63873601  0.10558153     0.84900
O673        O  0.76248563  0.60946013  0.10979967    -0.65700
Ni674      Ni  0.76735637  0.59263501  0.13496140     1.27400
Ni675      Ni  0.84100661  0.68614860  0.12763626     1.26100
H676        H  0.85049327  0.65779286  0.11719476     0.39400
O677        O  0.28408404  0.11129817  0.19394689    -0.80500
O678        O  0.27395171  0.14643706  0.22485748    -0.65200
O679        O  0.29283353  0.15882169  0.20590356    -1.11800
C680        C  0.41596358  0.13502440  0.21089094     1.06400
O681        O  0.34707874  0.18821048  0.22713040    -0.78400
O682        O  0.41180658  0.21986495  0.21762198    -0.66000
Ni683      Ni  0.24564052  0.12101465  0.19989196     1.34900
C684        C  0.41114505  0.23690692  0.21198974     0.85100
O685        O  0.23213655  0.16271437  0.21479983    -0.79000
O686        O  0.20227543  0.12808486  0.20500450    -0.89200
C687        C  0.30594287  0.17305363  0.22871032     0.84700
O688        O  0.23114896  0.06608090  0.20428617    -0.67500
O689        O  0.40905853  0.13873459  0.21709426    -0.86700
C690        C  0.22378380  0.05601502  0.21044565     0.85500
C691        C  0.20100842  0.14770346  0.21037285     1.07100
H692        H  0.31622518  0.10453651  0.21566854     0.38900
O693        O  0.32906025  0.13680548  0.21522134    -1.09400
O694        O  0.38365366  0.21436126  0.20730794    -0.66000
Ni695      Ni  0.34373751  0.15035076  0.20595174     1.26300
O696        O  0.23745286  0.08580994  0.21505890    -0.66300
O697        O  0.39423413  0.14060584  0.20615108    -0.78600
C698        C  0.32404307  0.13965000  0.19221003     0.84900
O699        O  0.35391555  0.16272272  0.19656313    -0.65700
Ni700      Ni  0.37589430  0.16246415  0.22176152     1.27400
Ni701      Ni  0.28083720  0.15021329  0.21530083     1.26100
H702        H  0.30224261  0.18984250  0.20481534     0.39400
O703        O  0.31629272  0.10167443  0.10396919    -0.80500
O704        O  0.28474471  0.11392377  0.13478301    -0.65200
O705        O  0.32115687  0.14425287  0.11650340    -1.11800
C706        C  0.43751219  0.11385441  0.12298275     1.06400
O707        O  0.35487388  0.15785402  0.13808220    -0.78400
O708        O  0.42523028  0.19825846  0.12991872    -0.66000
Ni709      Ni  0.27904173  0.11841880  0.10927564     1.34900
C710        C  0.43020991  0.21580150  0.12416044     0.85100
O711        O  0.25489047  0.14445217  0.12469358    -0.79000
O712        O  0.23822859  0.13392690  0.11367714    -0.89200
C713        C  0.31331954  0.13362923  0.13943832     0.84700
O714        O  0.24605524  0.05820988  0.11264551    -0.67500
O715        O  0.42940993  0.12041192  0.12899314    -0.86700
C716        C  0.23788271  0.04254697  0.11856939     0.85500
C717        C  0.23180500  0.14375014  0.11961657     1.07100
H718        H  0.33427385  0.08095473  0.12632162     0.38900
O719        O  0.34779258  0.11338205  0.12602699    -1.09400
O720        O  0.41031459  0.19305949  0.11895691    -0.66000
Ni721      Ni  0.36855908  0.13032752  0.11708027     1.26300
O722        O  0.25716245  0.06626319  0.12373424    -0.66300
O723        O  0.41596166  0.11601070  0.11790768    -0.78600
C724        C  0.35906804  0.12196471  0.10328781     0.84900
O725        O  0.38528020  0.14521963  0.10798618    -0.65700
Ni726      Ni  0.39030087  0.13820610  0.13321107     1.27400
Ni727      Ni  0.30098814  0.12845971  0.12553903     1.26100
H728        H  0.33411463  0.17657963  0.11611315     0.39400
O729        O  0.81806577  0.09586790  0.19461838    -0.80500
O730        O  0.80011594  0.05193119  0.22433733    -0.65200
O731        O  0.76903693  0.05704587  0.20619746    -1.11800
C732        C  0.79639760  0.20282387  0.21227478     1.06400
O733        O  0.75727952  0.07837648  0.22828077    -0.78400
O734        O  0.71191676  0.09953849  0.21923088    -0.66000
Ni735      Ni  0.79494537  0.03940048  0.19920178     1.34900
C736        C  0.69649191  0.09369094  0.21330588     0.85100
O737        O  0.77376547  0.99211486  0.21439144    -0.79000
O738        O  0.77365821  0.98145876  0.20325468    -0.89200
C739        C  0.77766006  0.05596503  0.22902569     0.84700
O740        O  0.85384777  0.06102439  0.20287168    -0.67500
O741        O  0.78450045  0.18582479  0.21813807    -0.86700
C742        C  0.87096271  0.07593789  0.20860629     0.85500
C743        C  0.76969959  0.96773327  0.20928398     1.07100
H744        H  0.83020850  0.13444802  0.21619246     0.38900
O745        O  0.79808556  0.11462236  0.21569521    -1.09400
O746        O  0.72063810  0.10110661  0.20807985    -0.66000
Ni747      Ni  0.78349372  0.11895023  0.20654672     1.26300
O748        O  0.84820228  0.07612878  0.21357208    -0.66300
O749        O  0.79934156  0.18112993  0.20728157    -0.78600
C750        C  0.79424961  0.11288418  0.19280500     0.84900
O751        O  0.77176891  0.12075043  0.19712590    -0.65700
Ni752      Ni  0.77149442  0.13071604  0.22274243     1.27400
Ni753      Ni  0.78551842  0.05345246  0.21520352     1.26100
H754        H  0.73671853  0.03802911  0.20581983     0.39400
O755        O  0.89197341  0.19243692  0.10554331    -0.80500
O756        O  0.85746457  0.13335248  0.13556366    -0.65200
O757        O  0.83781398  0.14904342  0.11703016    -1.11800
C758        C  0.85676008  0.28873415  0.12327474     1.06400
O759        O  0.82229238  0.16873625  0.13938322    -0.78400
O760        O  0.77420302  0.17697606  0.12955723    -0.66000
Ni761      Ni  0.86465057  0.13381848  0.10990686     1.34900
C762        C  0.76217907  0.17554886  0.12350841     0.85100
O763        O  0.83192786  0.07766689  0.12472687    -0.79000
O764        O  0.83902940  0.07408951  0.11351380    -0.89200
C765        C  0.84018086  0.14444313  0.14033032     0.84700
O766        O  0.92091436  0.15072068  0.11410069    -0.67500
O767        O  0.83728111  0.26733244  0.12857524    -0.86700
C768        C  0.93565501  0.15922951  0.12008036     0.85500
C769        C  0.82875557  0.05602732  0.11931235     1.07100
H770        H  0.89602581  0.22108203  0.12805530     0.38900
O771        O  0.86425437  0.20250949  0.12707404    -1.09400
O772        O  0.79043538  0.19225288  0.11873492    -0.66000
Ni773      Ni  0.85391217  0.21051460  0.11785692     1.26300
O774        O  0.91173007  0.15825692  0.12502813    -0.66300
O775        O  0.87104883  0.27253311  0.11884189    -0.78600
C776        C  0.87389193  0.21664553  0.10449924     0.84900
O777        O  0.84584616  0.21659211  0.10858946    -0.65700
Ni778      Ni  0.83128871  0.21620438  0.13346285     1.27400
Ni779      Ni  0.84868614  0.14016275  0.12615224     1.26100
H780        H  0.80566516  0.13113382  0.11629939     0.39400
O781        O  0.52442393  0.53598922  0.06355904    -0.80500
O782        O  0.48914302  0.52228811  0.03224764    -0.65200
O783        O  0.49408130  0.49474496  0.05083298    -1.11800
C784        C  0.63993084  0.52319846  0.04435574     1.06400
O785        O  0.50818013  0.47124203  0.02997587    -0.78400
O786        O  0.53860121  0.43372877  0.03871788    -0.66000
Ni787      Ni  0.47255502  0.51721421  0.05780804     1.34900
C788        C  0.53040722  0.42064485  0.04475880     0.85100
O789        O  0.42839356  0.49574874  0.04209782    -0.79000
O790        O  0.41693994  0.49962094  0.05306839    -0.89200
C791        C  0.49487336  0.49789468  0.02799460     0.84700
O792        O  0.49924879  0.57712864  0.05444940    -0.67500
O793        O  0.62185466  0.51066422  0.03858149    -0.86700
C794        C  0.51168819  0.59501728  0.04870834     0.85500
C795        C  0.40343863  0.49292798  0.04699143     1.07100
H796        H  0.57035638  0.55429729  0.04056278     0.38900
O797        O  0.55083897  0.52233556  0.04131971    -1.09400
O798        O  0.53747564  0.44735140  0.04962190    -0.66000
Ni799      Ni  0.55682510  0.51067513  0.05049179     1.26300
O800        O  0.51014502  0.57303686  0.04342846    -0.66300
O801        O  0.61918434  0.52569694  0.04953399    -0.78600
C802        C  0.55214415  0.52195362  0.06447246     0.84900
O803        O  0.56193707  0.50257274  0.05987994    -0.65700
Ni804      Ni  0.56433603  0.49160497  0.03456854     1.27400
Ni805      Ni  0.48996436  0.50972707  0.04165065     1.26100
H806        H  0.47583572  0.46227305  0.05114588     0.39400
O807        O  0.47442625  0.48804396  0.97343797    -0.80500
O808        O  0.42364414  0.43881627  0.94293486    -0.65200
O809        O  0.43844778  0.43582352  0.96184265    -1.11800
C810        C  0.58864097  0.47246177  0.95580350     1.06400
O811        O  0.45926216  0.40119454  0.94072624    -0.78400
O812        O  0.49975574  0.37905101  0.95028616    -0.66000
Ni813      Ni  0.42481827  0.47269290  0.96743334     1.34900
C814        C  0.48582595  0.36418811  0.95614179     0.85100
O815        O  0.36774850  0.42039772  0.95312372    -0.79000
O816        O  0.37204774  0.46030597  0.96226430    -0.89200
C817        C  0.42993199  0.41225505  0.93925256     0.84700
O818        O  0.46175356  0.52695463  0.96262315    -0.67500
O819        O  0.57394444  0.46341738  0.94978752    -0.86700
C820        C  0.46058666  0.53349363  0.95638926     0.85500
C821        C  0.35097743  0.43714852  0.95710817     1.07100
H822        H  0.51002089  0.49092624  0.95127556     0.38900
O823        O  0.49364919  0.45879871  0.95211300    -1.09400
O824        O  0.48246823  0.38796568  0.96077968    -0.66000
Ni825      Ni  0.50057710  0.45128115  0.96147723     1.26300
O826        O  0.44472444  0.50147912  0.95212614    -0.66300
O827        O  0.56350052  0.46769924  0.96082939    -0.78600
C828        C  0.49259920  0.46518694  0.97526447     0.84900
O829        O  0.50357710  0.44458666  0.97101381    -0.65700
Ni830      Ni  0.51542658  0.43345280  0.94563270     1.27400
Ni831      Ni  0.43048966  0.43903721  0.95241803     1.26100
H832        H  0.42004760  0.40482778  0.96326442     0.39400
O833        O  0.02019248  0.44222059  0.06109692    -0.80500
O834        O  0.03422792  0.49678506  0.03081667    -0.65200
O835        O  0.00630556  0.48374009  0.04956887    -1.11800
C836        C  0.88282464  0.34516184  0.04293533     1.06400
O837        O  0.96372075  0.47706110  0.02841673    -0.78400
O838        O  0.90496095  0.45699216  0.03850421    -0.66000
Ni839      Ni  0.05116412  0.49937774  0.05634646     1.34900
C840        C  0.89901896  0.45716602  0.04477448     0.85100
O841        O  0.07111099  0.55307368  0.04139030    -0.79000
O842        O  0.08621945  0.55831602  0.05244812    -0.89200
C843        C  0.00398791  0.49089624  0.02656507     0.84700
O844        O  0.08648887  0.47892677  0.05182832    -0.67500
O845        O  0.88362451  0.36750443  0.03775481    -0.86700
C846        C  0.08989170  0.46923985  0.04579165     0.85500
C847        C  0.09275475  0.57526381  0.04657277     1.07100
H848        H  0.98452897  0.41194829  0.03799091     0.38900
O849        O  0.97352302  0.43170144  0.03942441    -1.09400
O850        O  0.91534704  0.44118774  0.04894602    -0.66000
Ni851      Ni  0.95962619  0.42218332  0.04872525     1.26300
O852        O  0.06561024  0.47059255  0.04102417    -0.66300
O853        O  0.91302257  0.36098019  0.04747932    -0.78600
C854        C  0.97822685  0.41718686  0.06222004     0.84900
O855        O  0.94890052  0.41403415  0.05807088    -0.65700
Ni856      Ni  0.92592102  0.42334137  0.03347293     1.27400
Ni857      Ni  0.02277486  0.49201126  0.04028972     1.26100
H858        H  0.99278190  0.50214700  0.05046660     0.39400
O859        O  0.03486747  0.52104533  0.97242772    -0.80500
O860        O  0.03987163  0.54272759  0.94076683    -0.65200
O861        O  0.01864490  0.54048796  0.95949450    -1.11800
C862        C  0.90535457  0.38778750  0.95479792     1.06400
O863        O  0.96741837  0.50899524  0.93807068    -0.78400
O864        O  0.90374380  0.47870153  0.94786446    -0.66000
Ni865      Ni  0.07013091  0.55936984  0.96519944     1.34900
C866        C  0.90080692  0.49083435  0.95378221     0.85100
O867        O  0.07359363  0.60547568  0.95025251    -0.79000
O868        O  0.11283301  0.60322263  0.95898157    -0.89200
C869        C  0.00876983  0.53443648  0.93659335     0.84700
O870        O  0.08142206  0.51378844  0.96186239    -0.67500
O871        O  0.90757488  0.40068531  0.94873648    -0.86700
C872        C  0.09133196  0.51108525  0.95581148     0.85500
C873        C  0.10888178  0.62303360  0.95384351     1.07100
H874        H  0.00221785  0.46214130  0.94975499     0.38900
O875        O  0.98718109  0.47944949  0.95034691    -1.09400
O876        O  0.92637487  0.49261038  0.95857429    -0.66000
Ni877      Ni  0.97348631  0.47736850  0.95967326     1.26300
O878        O  0.07861971  0.52669012  0.95097314    -0.66300
O879        O  0.92902930  0.41402445  0.95955223    -0.78600
C880        C  0.99334339  0.49481136  0.97369893     0.84900
O881        O  0.96342342  0.47744094  0.96912988    -0.65700
Ni882      Ni  0.93954780  0.45640750  0.94385403     1.27400
Ni883      Ni  0.03086745  0.54221105  0.95014821     1.26100
H884        H  0.00526608  0.55902182  0.96040162     0.39400
O885        O  0.44117358  0.95201568  0.06188634    -0.80500
O886        O  0.45381894  0.94126350  0.03102364    -0.65200
O887        O  0.48656283  0.96959499  0.04945326    -1.11800
C888        C  0.45861930  0.08972813  0.04543242     1.06400
O889        O  0.49715538  0.01284072  0.02822775    -0.78400
O890        O  0.54210733  0.07359305  0.03769033    -0.66000
Ni891      Ni  0.46584977  0.92385002  0.05615102     1.34900
C892        C  0.55741957  0.07883635  0.04361488     0.85100
O893        O  0.48500778  0.90649736  0.04021671    -0.79000
O894        O  0.48890023  0.89150166  0.05110672    -0.89200
C895        C  0.47329156  0.97154763  0.02660578     0.84700
O896        O  0.40687935  0.88579752  0.05261308    -0.67500
O897        O  0.47049991  0.08729206  0.03946814    -0.86700
C898        C  0.38754421  0.88379899  0.04707471     0.85500
C899        C  0.49253758  0.88546087  0.04486363     1.07100
H900        H  0.42293218  0.98780097  0.04017670     0.38900
O901        O  0.45512934  0.00066177  0.04066866    -1.09400
O902        O  0.53251715  0.06062320  0.04869517    -0.66000
Ni903      Ni  0.46984384  0.01531081  0.04990441     1.26300
O904        O  0.40761489  0.90956544  0.04214486    -0.66300
O905        O  0.45363744  0.06164400  0.05001118    -0.78600
C906        C  0.45504402  0.99336721  0.06324027     0.84900
O907        O  0.48061390  0.02462494  0.05927358    -0.65700
Ni908      Ni  0.48267642  0.04761983  0.03421742     1.27400
Ni909      Ni  0.46959231  0.95338909  0.04031268     1.26100
H910        H  0.51905268  0.98404481  0.04961587     0.39400
O911        O  0.48401914  0.94496928  0.97254388    -0.80500
O912        O  0.53663812  0.93917001  0.94263286    -0.65200
O913        O  0.53772116  0.95725682  0.96134023    -1.11800
C914        C  0.51034516  0.07611140  0.95495502     1.06400
O915        O  0.57628809  0.01186283  0.94006031    -0.78400
O916        O  0.60074118  0.07597617  0.94958113    -0.66000
Ni917      Ni  0.49564779  0.90743984  0.96660756     1.34900
C918        C  0.61539232  0.07607252  0.95544348     0.85100
O919        O  0.55245333  0.90129075  0.95313502    -0.79000
O920        O  0.50443416  0.86419089  0.96147502    -0.89200
C921        C  0.56409770  0.97063813  0.93890203     0.84700
O922        O  0.44396334  0.89587313  0.96140419    -0.67500
O923        O  0.51811213  0.06972540  0.94890830    -0.86700
C924        C  0.43936827  0.88682344  0.95519191     0.85500
C925        C  0.53116859  0.86664945  0.95682378     1.07100
H926        H  0.48688346  0.97741630  0.95050160     0.38900
O927        O  0.51887183  0.99188018  0.95137734    -1.09400
O928        O  0.59114554  0.04881179  0.96003411    -0.66000
Ni929      Ni  0.52692926  0.00666552  0.96069777     1.26300
O930        O  0.47300881  0.90015122  0.95131959    -0.66300
O931        O  0.51481186  0.05552608  0.95995361    -0.78600
C932        C  0.50861934  0.98612161  0.97429160     0.84900
O933        O  0.53330451  0.01656247  0.97013323    -0.65700
Ni934      Ni  0.54607590  0.03864031  0.94485399     1.27400
Ni935      Ni  0.53587530  0.94655366  0.95199885     1.26100
H936        H  0.56781615  0.96741013  0.96301836     0.39400
C937        C  0.48693173  0.98406440  0.00739633     0.19000
C938        C  0.51642718  0.02031191  0.00332096    -0.19000
C939        C  0.51571774  0.01563164  0.99636719    -0.11300
C940        C  0.48497634  0.97442948  0.99331167     0.21300
C941        C  0.45512297  0.93829215  0.99738886    -0.20700
C942        C  0.45592215  0.94296617  0.00435492    -0.11500
C943        C  0.48409065  0.96653227  0.98597701    -0.15700
C944        C  0.50780817  0.99851672  0.98135820    -0.29500
C945        C  0.48899828  0.99170394  0.01473624    -0.03800
C946        C  0.46994382  0.95917356  0.01944131    -0.40300
H947        H  0.54053523  0.05244743  0.00553645     0.12400
H948        H  0.53983221  0.04423606  0.99348349     0.12100
H949        H  0.43106465  0.90614271  0.99517347     0.11500
H950        H  0.43189961  0.91453008  0.00728572     0.11800
H951        H  0.46337469  0.93174546  0.98431588     0.14500
H952        H  0.52834989  0.03376088  0.98273535     0.13300
H953        H  0.50796502  0.02676588  0.01635062     0.10900
H954        H  0.45150202  0.92369749  0.01808793     0.13000
C955        C  0.73617051  0.17560633  0.95278187     0.19000
C956        C  0.76676105  0.18807437  0.94746187    -0.19000
C957        C  0.80561217  0.23052819  0.94733228    -0.11300
C958        C  0.81497260  0.26178593  0.95251411     0.21300
C959        C  0.78543665  0.24875425  0.95802033    -0.20700
C960        C  0.74634349  0.20597480  0.95815379    -0.11500
C961        C  0.85247707  0.30888187  0.95151644    -0.15700
C962        C  0.87248151  0.33999528  0.95640542    -0.29500
C963        C  0.69150737  0.13402765  0.95198111    -0.03800
C964        C  0.66257811  0.11119646  0.95698403    -0.40300
H965        H  0.75963116  0.16552470  0.94323683     0.12400
H966        H  0.82758855  0.23964625  0.94301982     0.12100
H967        H  0.79091728  0.27227159  0.96203253     0.11500
H968        H  0.72294793  0.19796288  0.96225101     0.11800
H969        H  0.86361605  0.31867420  0.94638265     0.14500
H970        H  0.86418089  0.33072466  0.96162257     0.13300
H971        H  0.68114329  0.12258467  0.94685734     0.10900
H972        H  0.67271695  0.11971779  0.96218265     0.13000
C973        C  0.23016705  0.72146889  0.95244720     0.19000
C974        C  0.27071910  0.72443129  0.95043374    -0.19000
C975        C  0.31140514  0.76504389  0.95104352    -0.11300
C976        C  0.31244913  0.80337766  0.95383506     0.21300
C977        C  0.27163648  0.80089173  0.95562374    -0.20700
C978        C  0.23066453  0.76039549  0.95485244    -0.11500
C979        C  0.35594702  0.84336642  0.95582216    -0.15700
C980        C  0.39414110  0.85653577  0.95236516    -0.29500
C981        C  0.18971351  0.67620422  0.95308573    -0.03800
C982        C  0.14732884  0.66744648  0.95201230    -0.40300
H983        H  0.27114151  0.69466420  0.94866161     0.12400
H984        H  0.34227808  0.76536190  0.94977647     0.12100
H985        H  0.27167082  0.82979141  0.95786421     0.11500
H986        H  0.19991938  0.75871874  0.95658029     0.11800
H987        H  0.35709223  0.86017979  0.96050363     0.14500
H988        H  0.39254510  0.84172687  0.94748095     0.13300
H989        H  0.19517262  0.64882364  0.95466081     0.10900
H990        H  0.14098112  0.69300801  0.94988489     0.13000
C991        C  0.68294843  0.16096715  0.03976828     0.19000
C992        C  0.70761321  0.17335003  0.03377997    -0.19000
C993        C  0.75134716  0.21009464  0.03359615    -0.11300
C994        C  0.77172280  0.23515881  0.03940773     0.21300
C995        C  0.74794400  0.22182145  0.04548942    -0.20700
C996        C  0.70391370  0.18507465  0.04567124    -0.11500
C997        C  0.81514542  0.27788224  0.03872394    -0.15700
C998        C  0.84393201  0.29926715  0.04381100    -0.29500
C999        C  0.63453791  0.12578992  0.03938828    -0.03800
C1000       C  0.60641905  0.10860721  0.04465255    -0.40300
H1001       H  0.69239587  0.15553990  0.02915233     0.12400
H1002       H  0.76882935  0.21985408  0.02884184     0.12100
H1003       H  0.76215960  0.24105694  0.05003847     0.11500
H1004       H  0.68612966  0.17725829  0.05037925     0.11800
H1005       H  0.82316067  0.29308893  0.03376957     0.14500
H1006       H  0.83842518  0.28362290  0.04870956     0.13300
H1007       H  0.62078089  0.11476681  0.03437905     0.10900
H1008       H  0.61871548  0.11719558  0.04975495     0.13000
C1009       C  0.27094629  0.78050333  0.05084859     0.19000
C1010       C  0.25090937  0.75960484  0.04470898    -0.19000
C1011       C  0.21126518  0.71739972  0.04460668    -0.11300
C1012       C  0.19095919  0.69532526  0.05064393     0.21300
C1013       C  0.21024530  0.71715179  0.05672611    -0.20700
C1014       C  0.24961214  0.75907265  0.05682686    -0.11500
C1015       C  0.15175151  0.64863119  0.05098412    -0.15700
C1016       C  0.12815120  0.62308512  0.04569771    -0.29500
C1017       C  0.31600400  0.82188073  0.05137727    -0.03800
C1018       C  0.33975199  0.84846658  0.04621928    -0.40300
H1019       H  0.26641995  0.77454543  0.03997719     0.12400
H1020       H  0.19785483  0.70187485  0.03979786     0.12100
H1021       H  0.19548363  0.70111858  0.06145780     0.11500
H1022       H  0.26423196  0.77418941  0.06163013     0.11800
H1023       H  0.14263404  0.63387851  0.05595733     0.14500
H1024       H  0.13530514  0.63648088  0.04065116     0.13300
H1025       H  0.33147110  0.82964248  0.05632649     0.10900
H1026       H  0.32512610  0.84320238  0.04124596     0.13000
C1027       C  0.00172768  0.50127370  0.99316088     0.19000
C1028       C  0.03839213  0.52620748  0.99751354    -0.19000
C1029       C  0.03297707  0.52273676  0.00447051    -0.11300
C1030       C  0.99050663  0.49399756  0.00727928     0.21300
C1031       C  0.95359380  0.46959426  0.00293826    -0.20700
C1032       C  0.95902875  0.47299564  0.99596173    -0.11500
C1033       C  0.98283783  0.48890924  0.01466034    -0.15700
C1034       C  0.01545861  0.50094262  0.01937076    -0.29500
C1035       C  0.01037863  0.50680480  0.98580262    -0.03800
C1036       C  0.98000178  0.48480627  0.98085198    -0.40300
H1037       H  0.07163643  0.54869227  0.99552003     0.12400
H1038       H  0.06208933  0.54309926  0.00758998     0.12100
H1039       H  0.92033803  0.44747296  0.00495720     0.11500
H1040       H  0.92971110  0.45350602  0.99283984     0.11800
H1041       H  0.94790170  0.47229715  0.01627675     0.14500
H1042       H  0.05053212  0.51553481  0.01795614     0.13300
H1043       H  0.04469616  0.53127196  0.98438131     0.10900
H1044       H  0.94524773  0.46032323  0.98197694     0.13000
C1045       C  0.79722358  0.50767534  0.95143721     0.19000
C1046       C  0.77276463  0.49631239  0.95748327    -0.19000
C1047       C  0.73095385  0.49483308  0.95784113    -0.11300
C1048       C  0.71287349  0.50476726  0.95216010     0.21300
C1049       C  0.73853953  0.51812257  0.94626076    -0.20700
C1050       C  0.77988926  0.51939630  0.94589927    -0.11500
C1051       C  0.66589766  0.49708818  0.95179329    -0.15700
C1052       C  0.63720076  0.48756322  0.95698221    -0.29500
C1053       C  0.83795639  0.50308564  0.95037880    -0.03800
C1054       C  0.86461886  0.50167836  0.95526201    -0.40300
H1055       H  0.78453617  0.48630579  0.96183617     0.12400
H1056       H  0.71217700  0.48387194  0.96246410     0.12100
H1057       H  0.72572396  0.52598661  0.94179567     0.11500
H1058       H  0.79776945  0.52821222  0.94117503     0.11800
H1059       H  0.65345190  0.49737152  0.94678519     0.14500
H1060       H  0.64852673  0.48866916  0.96209525     0.13300
H1061       H  0.84585044  0.49978033  0.94521026     0.10900
H1062       H  0.85895899  0.50686574  0.96045218     0.13000
C1063       C  0.24152323  0.44221502  0.95932341     0.19000
C1064       C  0.23281518  0.45914916  0.95341731    -0.19000
C1065       C  0.19708638  0.46839326  0.95316716    -0.11300
C1066       C  0.16938728  0.46045263  0.95881555     0.21300
C1067       C  0.17721948  0.44155429  0.96455036    -0.20700
C1068       C  0.21287654  0.43288697  0.96481583    -0.11500
C1069       C  0.13467937  0.47458841  0.95934166    -0.15700
C1070       C  0.12091161  0.49174976  0.95437708    -0.29500
C1071       C  0.28337890  0.44008504  0.96038129    -0.03800
C1072       C  0.30606769  0.43183628  0.95560215    -0.40300
H1073       H  0.25499844  0.46762426  0.94914608     0.12400
H1074       H  0.19264585  0.48335606  0.94866738     0.12100
H1075       H  0.15664951  0.43502056  0.96897876     0.11500
H1076       H  0.21902744  0.42016667  0.96943734     0.11800
H1077       H  0.12074627  0.47228279  0.96430858     0.14500
H1078       H  0.13290793  0.49381965  0.94929697     0.13300
H1079       H  0.29645628  0.44611812  0.96547970     0.10900
H1080       H  0.29243743  0.42269558  0.95055888     0.13000
C1081       C  0.46520928  0.24396858  0.95309241     0.19000
C1082       C  0.48346986  0.23251350  0.95857605    -0.19000
C1083       C  0.48881699  0.19442787  0.95826140    -0.11300
C1084       C  0.47595005  0.16716052  0.95245828     0.21300
C1085       C  0.45589699  0.17764609  0.94714956    -0.20700
C1086       C  0.45050935  0.21544124  0.94746786    -0.11500
C1087       C  0.48657114  0.13037317  0.95141097    -0.15700
C1088       C  0.49628456  0.10981473  0.95635164    -0.29500
C1089       C  0.46677090  0.28808280  0.95253304    -0.03800
C1090       C  0.47462886  0.31723008  0.95760481    -0.40300
H1091       H  0.49604185  0.25409650  0.96294525     0.12400
H1092       H  0.50524371  0.18809793  0.96241488     0.12100
H1093       H  0.44571745  0.15734928  0.94262359     0.11500
H1094       H  0.43652229  0.22351025  0.94315882     0.11800
H1095       H  0.48667308  0.11994995  0.94626595     0.14500
H1096       H  0.49426270  0.11783625  0.96155384     0.13300
H1097       H  0.46374155  0.29833608  0.94748736     0.10900
H1098       H  0.47502053  0.30759804  0.96277246     0.13000
C1099       C  0.50493686  0.74372588  0.95596645     0.19000
C1100       C  0.46693621  0.70409088  0.95372069    -0.19000
C1101       C  0.46616201  0.66288098  0.95389242    -0.11300
C1102       C  0.50312244  0.66041445  0.95647366     0.21300
C1103       C  0.54158176  0.70024061  0.95859079    -0.20700
C1104       C  0.54278951  0.74177305  0.95825447    -0.11500
C1105       C  0.49927315  0.61609772  0.95789313    -0.15700
C1106       C  0.47496857  0.57955721  0.95401680    -0.29500
C1107       C  0.50181583  0.78512888  0.95667782    -0.03800
C1108       C  0.53644479  0.82697821  0.95560511    -0.40300
H1109       H  0.43721455  0.70482454  0.95202422     0.12400
H1110       H  0.43552834  0.63261834  0.95240193     0.12100
H1111       H  0.57011495  0.69895828  0.96069948     0.11500
H1112       H  0.57214949  0.77176955  0.96015236     0.11800
H1113       H  0.51442577  0.61285445  0.96250188     0.14500
H1114       H  0.46239070  0.58314505  0.94918467     0.13300
H1115       H  0.46914341  0.78080151  0.95803328     0.10900
H1116       H  0.56816326  0.83193097  0.95364840     0.13000
C1117       C  0.82129562  0.50899402  0.04616501     0.19000
C1118       C  0.81629440  0.54159882  0.04260363    -0.19000
C1119       C  0.78140688  0.55016647  0.04412106    -0.11300
C1120       C  0.74973014  0.52528422  0.04913905     0.21300
C1121       C  0.75663433  0.49500542  0.05302126    -0.20700
C1122       C  0.79188679  0.48674336  0.05154671    -0.11500
C1123       C  0.70688105  0.52639788  0.04993456    -0.15700
C1124       C  0.68762476  0.53495943  0.04467872    -0.29500
C1125       C  0.85436055  0.49604216  0.04369891    -0.03800
C1126       C  0.87075361  0.47496087  0.04749364    -0.40300
H1127       H  0.83873728  0.55965614  0.03849639     0.12400
H1128       H  0.77864883  0.57533926  0.04119978     0.12100
H1129       H  0.73307031  0.47562200  0.05694495     0.11500
H1130       H  0.79411729  0.46097157  0.05438234     0.11800
H1131       H  0.68761011  0.51320708  0.05451544     0.14500
H1132       H  0.70491884  0.54377143  0.03989945     0.13300
H1133       H  0.86488997  0.50341741  0.03850037     0.10900
H1134       H  0.86275221  0.46968794  0.05278975     0.13000
C1135       C  0.27840134  0.46085559  0.04918776     0.19000
C1136       C  0.26714029  0.48208488  0.04409017    -0.19000
C1137       C  0.22374252  0.47681935  0.04377261    -0.11300
C1138       C  0.19091619  0.45025247  0.04854631     0.21300
C1139       C  0.20195853  0.42807519  0.05347416    -0.20700
C1140       C  0.24507260  0.43330376  0.05379063    -0.11500
C1141       C  0.14771286  0.45036649  0.04924013    -0.15700
C1142       C  0.12608170  0.45866577  0.04425602    -0.29500
C1143       C  0.32521154  0.46981253  0.05030922    -0.03800
C1144       C  0.35660960  0.48219346  0.04548381    -0.40300
H1145       H  0.29230697  0.50455559  0.04056435     0.12400
H1146       H  0.21684753  0.49554957  0.04003715     0.12100
H1147       H  0.17753293  0.40782673  0.05725513     0.11500
H1148       H  0.25281248  0.41672256  0.05777991     0.11800
H1149       H  0.13407670  0.44530593  0.05428134     0.14500
H1150       H  0.13718539  0.46115098  0.03910575     0.13300
H1151       H  0.33394075  0.46523009  0.05537805     0.10900
H1152       H  0.34786877  0.48415880  0.04030907     0.13000
C1153       C  0.48023516  0.29183019  0.04228135     0.19000
C1154       C  0.45804611  0.26306232  0.03685380    -0.19000
C1155       C  0.44551223  0.21753255  0.03709671    -0.11300
C1156       C  0.45498578  0.19937919  0.04276113     0.21300
C1157       C  0.47543563  0.22753011  0.04835884    -0.20700
C1158       C  0.48794986  0.27342106  0.04812215    -0.11500
C1159       C  0.44889680  0.15332911  0.04211185    -0.15700
C1160       C  0.45281292  0.12880006  0.04708524    -0.29500
C1161       C  0.49769431  0.34099391  0.04131926    -0.03800
C1162       C  0.51199537  0.37208290  0.04625073    -0.40300
H1163       H  0.45161959  0.27618244  0.03229600     0.12400
H1164       H  0.43002642  0.19680055  0.03269879     0.12100
H1165       H  0.48403205  0.21505820  0.05277561     0.11500
H1166       H  0.50555744  0.29454158  0.05238244     0.11800
H1167       H  0.44395629  0.14005748  0.03703336     0.14500
H1168       H  0.45513447  0.13902172  0.05228543     0.13300
H1169       H  0.49861357  0.35216271  0.03619142     0.10900
H1170       H  0.50960273  0.36206307  0.05145680     0.13000
C1171       C  0.52301500  0.79056180  0.04546824     0.19000
C1172       C  0.54985797  0.78060898  0.04965763    -0.19000
C1173       C  0.55251240  0.74147432  0.04867057    -0.11300
C1174       C  0.52722577  0.71052422  0.04355849     0.21300
C1175       C  0.50222969  0.72167329  0.03914857    -0.20700
C1176       C  0.49997272  0.76116434  0.04009338    -0.11500
C1177       C  0.52308869  0.66495478  0.04304218    -0.15700
C1178       C  0.52755936  0.64388957  0.04844001    -0.29500
C1179       C  0.51646960  0.82923378  0.04724737    -0.03800
C1180       C  0.50451655  0.85108580  0.04280622    -0.40300
H1181       H  0.56821066  0.80281048  0.05380133     0.12400
H1182       H  0.57370097  0.73527276  0.05202277     0.12100
H1183       H  0.48255365  0.69864631  0.03515791     0.11500
H1184       H  0.47830313  0.76721987  0.03682073     0.11800
H1185       H  0.51001555  0.64597198  0.03841230     0.14500
H1186       H  0.53663169  0.66120243  0.05323601     0.13300
H1187       H  0.52117314  0.83968215  0.05247193     0.10900
H1188       H  0.50221537  0.84283715  0.03751299     0.13000
C1189       C  0.48751568  0.47822106  0.99456720     0.19000
C1190       C  0.46765521  0.49769647  0.99852676    -0.19000
C1191       C  0.47006311  0.49766112  0.00553648    -0.11300
C1192       C  0.49250203  0.47798418  0.00878031     0.21300
C1193       C  0.51188915  0.45804272  0.00482554    -0.20700
C1194       C  0.50955683  0.45814891  0.99781712    -0.11500
C1195       C  0.49650395  0.47677550  0.01621951    -0.15700
C1196       C  0.48595679  0.49962098  0.02073821    -0.29500
C1197       C  0.48342070  0.47933031  0.98712481    -0.03800
C1198       C  0.50164092  0.46389209  0.98253121    -0.40300
H1199       H  0.45005649  0.51309149  0.99618119     0.12400
H1200       H  0.45398619  0.51273406  0.00834609     0.12100
H1201       H  0.52918746  0.44234775  0.00717467     0.11500
H1202       H  0.52493724  0.44232664  0.99502254     0.11800
H1203       H  0.51073188  0.45664735  0.01807796     0.14500
H1204       H  0.47290381  0.52123279  0.01915295     0.13300
H1205       H  0.46322632  0.49359865  0.98531474     0.10900
H1206       H  0.52152528  0.44873711  0.98404020     0.13000
C1207       C  0.97191271  0.35294147  0.07846990     0.19000
C1208       C  0.93100647  0.34215082  0.08160507    -0.19000
C1209       C  0.91450263  0.31122771  0.08688436    -0.11300
C1210       C  0.93883319  0.29068598  0.08923744     0.21300
C1211       C  0.98015933  0.30234188  0.08618299    -0.20700
C1212       C  0.99662473  0.33328324  0.08089368    -0.11500
C1213       C  0.92266903  0.25705075  0.09480567    -0.15700
C1214       C  0.88713505  0.24770868  0.09873184    -0.29500
C1215       C  0.98942141  0.38412813  0.07264215    -0.03800
C1216       C  0.96205618  0.38919982  0.06831787    -0.40300
H1217       H  0.91163346  0.35766799  0.08002759     0.12400
H1218       H  0.88248148  0.30353961  0.08899663     0.12100
H1219       H  0.99980544  0.28733709  0.08788308     0.11500
H1220       H  0.02838471  0.34123349  0.07860316     0.11800
H1221       H  0.94187790  0.24026783  0.09586175     0.14500
H1222       H  0.86814114  0.26493235  0.09802471     0.13300
H1223       H  0.02536915  0.40093477  0.07163063     0.10900
H1224       H  0.92581915  0.37019799  0.06903172     0.13000
C1225       C  0.82192525  0.13506292  0.15961612     0.19000
C1226       C  0.80533641  0.15627084  0.16387431    -0.19000
C1227       C  0.80286697  0.14946183  0.17079799    -0.11300
C1228       C  0.81684674  0.12094350  0.17366276     0.21300
C1229       C  0.83367216  0.09986350  0.16941470    -0.20700
C1230       C  0.83615116  0.10670061  0.16246552    -0.11500
C1231       C  0.81560633  0.11281735  0.18101762    -0.15700
C1232       C  0.79426237  0.12444431  0.18563936    -0.29500
C1233       C  0.82348950  0.14433489  0.15230462    -0.03800
C1234       C  0.83980701  0.12928841  0.14734409    -0.40300
H1235       H  0.79433810  0.17857962  0.16183633     0.12400
H1236       H  0.79053377  0.16711320  0.17384387     0.12100
H1237       H  0.84490891  0.07783632  0.17148463     0.11500
H1238       H  0.84912492  0.08974118  0.15939091     0.11800
H1239       H  0.83270157  0.09498981  0.18270012     0.14500
H1240       H  0.77545086  0.14089486  0.18420057     0.13300
H1241       H  0.81040710  0.16641938  0.15094663     0.10900
H1242       H  0.85373709  0.10758351  0.14840010     0.13000
C1243       C  0.13148678  0.16420652  0.11636757     0.19000
C1244       C  0.11683444  0.17684869  0.11062507    -0.19000
C1245       C  0.07855435  0.18137053  0.11078881    -0.11300
C1246       C  0.05341143  0.17306456  0.11668848     0.21300
C1247       C  0.06857948  0.16153428  0.12253593    -0.20700
C1248       C  0.10731096  0.15718060  0.12237702    -0.11500
C1249       C  0.00953631  0.17226076  0.11618787    -0.15700
C1250       C  0.98240078  0.16858216  0.12133941    -0.29500
C1251       C  0.16992322  0.15566151  0.11564249    -0.03800
C1252       C  0.19512008  0.15423287  0.12073669    -0.40300
H1253       H  0.13459836  0.18237757  0.10592588     0.12400
H1254       H  0.06774387  0.19010185  0.10619654     0.12100
H1255       H  0.04983613  0.15404641  0.12715860     0.11500
H1256       H  0.11693680  0.14648838  0.12688299     0.11800
H1257       H  0.99787874  0.17268668  0.11112868     0.14500
H1258       H  0.99320899  0.16972849  0.12648461     0.13300
H1259       H  0.17813684  0.15071806  0.11056919     0.10900
H1260       H  0.18894809  0.16077502  0.12583193     0.13000
C1261       C  0.63364167  0.12101924  0.12621931     0.19000
C1262       C  0.60767828  0.10706838  0.13208067    -0.19000
C1263       C  0.56359984  0.09919399  0.13210795    -0.11300
C1264       C  0.54402637  0.10479828  0.12626753     0.21300
C1265       C  0.56901289  0.11631139  0.12027683    -0.20700
C1266       C  0.61335178  0.12425139  0.12025039    -0.11500
C1267       C  0.49991820  0.10316104  0.12691716    -0.15700
C1268       C  0.47543208  0.10551753  0.12179155    -0.29500
C1269       C  0.68218630  0.13463258  0.12679719    -0.03800
C1270       C  0.71352044  0.15558356  0.12199769    -0.40300
H1271       H  0.62213768  0.10396380  0.13675021     0.12400
H1272       H  0.54529328  0.09030385  0.13679579     0.12100
H1273       H  0.55550307  0.12117609  0.11565430     0.11500
H1274       H  0.63165868  0.13408660  0.11558487     0.11800
H1275       H  0.48839666  0.10284346  0.13199767     0.14500
H1276       H  0.48475350  0.10438633  0.11664073     0.13300
H1277       H  0.69338493  0.12999087  0.13168556     0.10900
H1278       H  0.70420442  0.16077876  0.11702395     0.13000
C1279       C  0.42041487  0.05478050  0.07616818     0.19000
C1280       C  0.43923738  0.09919987  0.07858371    -0.19000
C1281       C  0.41879735  0.10954572  0.08383155    -0.11300
C1282       C  0.37865842  0.07559414  0.08673493     0.21300
C1283       C  0.35889975  0.03158750  0.08413509    -0.20700
C1284       C  0.37953642  0.02116417  0.07893590    -0.11500
C1285       C  0.35655097  0.08464189  0.09247629    -0.15700
C1286       C  0.37976345  0.11682585  0.09709415    -0.29500
C1287       C  0.44281344  0.04515800  0.07052797    -0.03800
C1288       C  0.43760713  0.00397391  0.06933820    -0.40300
H1289       H  0.47007586  0.12594987  0.07643373     0.12400
H1290       H  0.43424557  0.14418857  0.08554252     0.12100
H1291       H  0.32762939  0.00497265  0.08619959     0.11500
H1292       H  0.36288290  0.98692708  0.07703280     0.11800
H1293       H  0.32079530  0.06158078  0.09325119     0.14500
H1294       H  0.41606058  0.13792623  0.09663738     0.13300
H1295       H  0.46406673  0.07296229  0.06721803     0.10900
H1296       H  0.41770624  0.97623400  0.07272315     0.13000
C1297       C  0.32077474  0.14430080  0.15878007     0.19000
C1298       C  0.35806860  0.16662852  0.16309847    -0.19000
C1299       C  0.35330968  0.16079487  0.17003110    -0.11300
C1300       C  0.31076657  0.13241699  0.17286078     0.21300
C1301       C  0.27326196  0.11039289  0.16854772    -0.20700
C1302       C  0.27806601  0.11617929  0.16158841    -0.11500
C1303       C  0.30345268  0.12530369  0.18022960    -0.15700
C1304       C  0.33569253  0.14523770  0.18500376    -0.29500
C1305       C  0.32923846  0.15066166  0.15143803    -0.03800
C1306       C  0.29867503  0.12903722  0.14651822    -0.40300
H1307       H  0.39142796  0.18849905  0.16109185     0.12400
H1308       H  0.38326036  0.17865282  0.17307910     0.12100
H1309       H  0.23996662  0.08850090  0.17057220     0.11500
H1310       H  0.24831129  0.09843999  0.15848726     0.11800
H1311       H  0.26887537  0.10324121  0.18181871     0.14500
H1312       H  0.37057112  0.16793526  0.18371166     0.13300
H1313       H  0.36399392  0.17345221  0.15000001     0.10900
H1314       H  0.26352383  0.10601665  0.14764051     0.13000
C1315       C  0.58849876  0.09697000  0.20912266     0.19000
C1316       C  0.58009045  0.12599928  0.20514726    -0.19000
C1317       C  0.54247543  0.13104372  0.20633182    -0.11300
C1318       C  0.51243387  0.10719285  0.21155742     0.21300
C1319       C  0.51992590  0.07723254  0.21538781    -0.20700
C1320       C  0.55692276  0.07152105  0.21413274    -0.11500
C1321       C  0.47479705  0.11488680  0.21343674    -0.15700
C1322       C  0.45176106  0.12494739  0.20895136    -0.29500
C1323       C  0.63227003  0.09751789  0.20827832    -0.03800
C1324       C  0.64817724  0.07924848  0.21274481    -0.40300
H1325       H  0.60359426  0.14612794  0.20126154     0.12400
H1326       H  0.53810729  0.15504091  0.20334754     0.12100
H1327       H  0.49712755  0.05830500  0.21941579     0.11500
H1328       H  0.56056602  0.04766432  0.21722888     0.11800
H1329       H  0.46511641  0.11104446  0.21868103     0.14500
H1330       H  0.45952786  0.12618061  0.20365562     0.13300
H1331       H  0.65480619  0.11880169  0.20435100     0.10900
H1332       H  0.62787331  0.06026942  0.21697127     0.13000
C1333       C  0.08818940  0.14103043  0.20634903     0.19000
C1334       C  0.06044586  0.12374658  0.21201443    -0.19000
C1335       C  0.01475611  0.11096548  0.21160791    -0.11300
C1336       C  0.99619480  0.11534839  0.20553150     0.21300
C1337       C  0.02428914  0.13360469  0.19995915    -0.20700
C1338       C  0.06973806  0.14639189  0.20036751    -0.11500
C1339       C  0.94737477  0.09853621  0.20463162    -0.15700
C1340       C  0.91953961  0.09363640  0.20968626    -0.29500
C1341       C  0.13433942  0.14779168  0.20609372    -0.03800
C1342       C  0.16023013  0.15132256  0.21142235    -0.40300
H1343       H  0.07318751  0.11787547  0.21664647     0.12400
H1344       H  0.99384352  0.09578884  0.21596024     0.12100
H1345       H  0.01080446  0.13712297  0.19522132     0.11500
H1346       H  0.09027459  0.15915607  0.19590930     0.11800
H1347       H  0.93404971  0.09081745  0.19955081     0.14500
H1348       H  0.93254558  0.10349069  0.21474477     0.13300
H1349       H  0.14699539  0.14765501  0.20110507     0.10900
H1350       H  0.15072452  0.15478452  0.21647505     0.13000
C1351       C  0.78973956  0.84989782  0.12250203     0.19000
C1352       C  0.76805958  0.86515813  0.11814116    -0.19000
C1353       C  0.77099244  0.90696348  0.11917284    -0.11300
C1354       C  0.79673122  0.93505247  0.12451757     0.21300
C1355       C  0.81593669  0.91857767  0.12914190    -0.20700
C1356       C  0.81273007  0.87647510  0.12813619    -0.11500
C1357       C  0.80716506  0.98280050  0.12500925    -0.15700
C1358       C  0.81264943  0.00716101  0.11944543    -0.29500
C1359       C  0.79244154  0.80933860  0.12055556    -0.03800
C1360       C  0.80048668  0.78424507  0.12492469    -0.40300
H1361       H  0.74993025  0.84526233  0.11379526     0.12400
H1362       H  0.75421146  0.91779916  0.11565063     0.12100
H1363       H  0.83570326  0.93943020  0.13331588     0.11500
H1364       H  0.83058745  0.86628083  0.13155121     0.11800
H1365       H  0.81507073  0.99928626  0.12987961     0.14500
H1366       H  0.80822498  0.99122251  0.11457642     0.13300
H1367       H  0.78980792  0.80121830  0.11524624     0.10900
H1368       H  0.80100014  0.79048595  0.13026761     0.13000
C1369       C  0.85305893  0.39750829  0.12668437     0.19000
C1370       C  0.84137179  0.41135216  0.12073441    -0.19000
C1371       C  0.83560910  0.44922461  0.12074880    -0.11300
C1372       C  0.84172400  0.47375949  0.12671544     0.21300
C1373       C  0.85500781  0.46053972  0.13254724    -0.20700
C1374       C  0.86029039  0.42277440  0.13254165    -0.11500
C1375       C  0.83096628  0.51056661  0.12741151    -0.15700
C1376       C  0.81713253  0.52779432  0.12247845    -0.29500
C1377       C  0.85322495  0.35450171  0.12726280    -0.03800
C1378       C  0.86131223  0.33357913  0.12220247    -0.40300
H1379       H  0.83455595  0.39184909  0.11616925     0.12400
H1380       H  0.82488588  0.45791774  0.11616322     0.12100
H1381       H  0.85981837  0.47859621  0.13722043     0.11500
H1382       H  0.86900286  0.41257612  0.13719388     0.11800
H1383       H  0.83244927  0.52281554  0.13248980     0.14500
H1384       H  0.81664093  0.51826654  0.11728484     0.13300
H1385       H  0.84646620  0.33935969  0.13222178     0.10900
H1386       H  0.87085568  0.34907225  0.11728770     0.13000
C1387       C  0.13055789  0.92742592  0.11558816     0.19000
C1388       C  0.10680192  0.90403651  0.10982557    -0.19000
C1389       C  0.06307116  0.86741841  0.11027846    -0.11300
C1390       C  0.04176559  0.85292276  0.11650992     0.21300
C1391       C  0.06588911  0.87525895  0.12233965    -0.20700
C1392       C  0.10984154  0.91215574  0.12188562    -0.11500
C1393       C  0.99364124  0.81652211  0.11654038    -0.15700
C1394       C  0.97000171  0.79349734  0.12197801    -0.29500
C1395       C  0.17421142  0.97012050  0.11465165    -0.03800
C1396       C  0.20205348  0.99518281  0.11964802    -0.40300
H1397       H  0.12160138  0.91502494  0.10490838     0.12400
H1398       H  0.04538556  0.85096895  0.10569778     0.12100
H1399       H  0.05055733  0.86570379  0.12723295     0.11500
H1400       H  0.12633024  0.92946019  0.12646533     0.11800
H1401       H  0.97670121  0.80796323  0.11169956     0.14500
H1402       H  0.98599826  0.79953378  0.12686071     0.13300
H1403       H  0.18204247  0.98331725  0.10957712     0.10900
H1404       H  0.19594523  0.98292618  0.12475960     0.13000
C1405       C  0.51410733  0.34104221  0.12850631     0.19000
C1406       C  0.52736270  0.36490223  0.13458514    -0.19000
C1407       C  0.56175351  0.40991634  0.13478246    -0.11300
C1408       C  0.58380861  0.43250737  0.12890399     0.21300
C1409       C  0.56976992  0.40925107  0.12275310    -0.20700
C1410       C  0.53524369  0.36394303  0.12255366    -0.11500
C1411       C  0.62432255  0.47808912  0.12959244    -0.15700
C1412       C  0.64507737  0.50726786  0.12452513    -0.29500
C1413       C  0.48055187  0.29188011  0.12877786    -0.03800
C1414       C  0.46103106  0.26500212  0.12341670    -0.40300
H1415       H  0.51185565  0.34828148  0.13925166     0.12400
H1416       H  0.57204542  0.42681090  0.13959606     0.12100
H1417       H  0.58659000  0.42504084  0.11812657     0.11500
H1418       H  0.52672367  0.34687440  0.11776370     0.11800
H1419       H  0.63911140  0.48710557  0.13457850     0.14500
H1420       H  0.63056939  0.50014032  0.11952772     0.13300
H1421       H  0.47186239  0.27682046  0.13373706     0.10900
H1422       H  0.46744245  0.27876046  0.11839076     0.13000
C1423       C  0.63633941  0.54418981  0.07891291     0.19000
C1424       C  0.68361346  0.56911890  0.07915273    -0.19000
C1425       C  0.70641597  0.58267080  0.08530338    -0.11300
C1426       C  0.68235222  0.57066105  0.09136324     0.21300
C1427       C  0.63513879  0.54449113  0.09113785    -0.20700
C1428       C  0.61226797  0.53175691  0.08498061    -0.11500
C1429       C  0.70584196  0.58392919  0.09796206    -0.15700
C1430       C  0.74285032  0.62446373  0.09900056    -0.29500
C1431       C  0.61315814  0.53144897  0.07227773    -0.03800
C1432       C  0.57363662  0.52991531  0.07116571    -0.40300
H1433       H  0.70293912  0.57871699  0.07455818     0.12400
H1434       H  0.74289654  0.60189675  0.08531680     0.12100
H1435       H  0.61589343  0.53436507  0.09573931     0.11500
H1436       H  0.57584181  0.51163117  0.08497971     0.11800
H1437       H  0.69079638  0.56098105  0.10215876     0.14500
H1438       H  0.75549261  0.64910618  0.09497540     0.13300
H1439       H  0.63077462  0.52699371  0.06808640     0.10900
H1440       H  0.55796991  0.53833758  0.07521441     0.13000
C1441       C  0.14891707  0.92699236  0.20823442     0.19000
C1442       C  0.13619039  0.90065324  0.20237748    -0.19000
C1443       C  0.09856044  0.85742846  0.20229558    -0.11300
C1444       C  0.07293056  0.83888240  0.20809497     0.21300
C1445       C  0.08680025  0.86398848  0.21409163    -0.20700
C1446       C  0.12450131  0.90776539  0.21416417    -0.11500
C1447       C  0.02926052  0.79619430  0.20738481    -0.15700
C1448       C  0.00618445  0.76755622  0.21240101    -0.29500
C1449       C  0.18516900  0.97508103  0.20761693    -0.03800
C1450       C  0.19598513  0.00765293  0.21226245    -0.40300
H1451       H  0.15424526  0.91432446  0.19773515     0.12400
H1452       H  0.08854284  0.83893250  0.19760392     0.12100
H1453       H  0.06736968  0.85094501  0.21863290     0.11500
H1454       H  0.13331237  0.92659382  0.21880738     0.11800
H1455       H  0.01484013  0.78839799  0.20236629     0.14500
H1456       H  0.02071477  0.77256494  0.21738621     0.13300
H1457       H  0.20117800  0.98514279  0.20273718     0.10900
H1458       H  0.18167813  0.99956287  0.21724719     0.13000
C1459       C  0.51256999  0.35664393  0.21509416     0.19000
C1460       C  0.53614225  0.37336287  0.20903378    -0.19000
C1461       C  0.57823239  0.41341789  0.20897461    -0.11300
C1462       C  0.59732445  0.43732003  0.21498026     0.21300
C1463       C  0.57238405  0.42156450  0.22091067    -0.20700
C1464       C  0.53083106  0.38182160  0.22097147    -0.11500
C1465       C  0.64408917  0.47639055  0.21558419    -0.15700
C1466       C  0.67480619  0.49384822  0.21063329    -0.29500
C1467       C  0.47206754  0.31103588  0.21579751    -0.03800
C1468       C  0.44551720  0.28485462  0.21076086    -0.40300
H1469       H  0.52341589  0.35465689  0.20440697     0.12400
H1470       H  0.59605573  0.42438695  0.20427697     0.12100
H1471       H  0.58592497  0.43912665  0.22561270     0.11500
H1472       H  0.51357340  0.36983499  0.22571263     0.11800
H1473       H  0.65484347  0.48989609  0.22061044     0.14500
H1474       H  0.66574783  0.48240533  0.20550097     0.13300
H1475       H  0.46465085  0.29750230  0.22085669     0.10900
H1476       H  0.45028971  0.29769798  0.20568053    -0.01400
C1477       C  0.79653981  0.79409178  0.21354140     0.19000
C1478       C  0.75990980  0.79379614  0.21032953    -0.19000
C1479       C  0.75095723  0.82906019  0.21129726    -0.11300
C1480       C  0.77922768  0.86616773  0.21539545     0.21300
C1481       C  0.81395937  0.86493723  0.21899109    -0.20700
C1482       C  0.82270937  0.82933544  0.21806538    -0.11500
C1483       C  0.77602130  0.90814228  0.21552127    -0.15700
C1484       C  0.76149707  0.92132512  0.21015723    -0.29500
C1485       C  0.80927978  0.76019538  0.21144097    -0.03800
C1486       C  0.83370261  0.74758227  0.21521732    -0.40300
H1487       H  0.73891855  0.76680968  0.20688350     0.12400
H1488       H  0.72267382  0.82773449  0.20865809     0.12100
H1489       H  0.83604216  0.89286980  0.22222184     0.11500
H1490       H  0.85154756  0.83102082  0.22058173     0.11800
H1491       H  0.79184323  0.93164197  0.21965822     0.14500
H1492       H  0.74966531  0.89990505  0.20574106     0.13300
H1493       H  0.79842825  0.74536280  0.20648486     0.10900
H1494       H  0.84229096  0.75943548  0.22035042     0.13000
C1495       C  0.82063049  0.32492987  0.21574273     0.19000
C1496       C  0.83387110  0.35153349  0.22156714    -0.19000
C1497       C  0.84019868  0.39515732  0.22151884    -0.11300
C1498       C  0.83333962  0.41359440  0.21564939     0.21300
C1499       C  0.82135481  0.38765889  0.20972410    -0.20700
C1500       C  0.81506032  0.34368856  0.20976892    -0.11500
C1501       C  0.83347357  0.45713532  0.21626018    -0.15700
C1502       C  0.83402586  0.48346298  0.21116060    -0.29500
C1503       C  0.81018522  0.27714291  0.21634348    -0.03800
C1504       C  0.80721044  0.25023035  0.21118860    -0.40300
H1505       H  0.83836982  0.33811250  0.22624187     0.12400
H1506       H  0.84912842  0.41409873  0.22617148     0.12100
H1507       H  0.81476180  0.40024414  0.20513767     0.11500
H1508       H  0.80401423  0.32402031  0.20520077     0.11800
H1509       H  0.83094128  0.46713902  0.22134192     0.14500
H1510       H  0.83900938  0.47634983  0.20603515     0.13300
H1511       H  0.80549754  0.26366170  0.22139530     0.10900
H1512       H  0.81372667  0.26316274  0.20610751     0.13000
C1513       C  0.83398956  0.64464237  0.16034280     0.19000
C1514       C  0.82032958  0.60472456  0.16399469    -0.19000
C1515       C  0.81772373  0.60432547  0.17097883    -0.11300
C1516       C  0.82868208  0.64410301  0.17451708     0.21300
C1517       C  0.84250848  0.68414604  0.17087022    -0.20700
C1518       C  0.84510681  0.68453533  0.16386619    -0.11500
C1519       C  0.82772532  0.64615824  0.18196882    -0.15700
C1520       C  0.81390913  0.61062698  0.18617128    -0.29500
C1521       C  0.83409639  0.64176768  0.15290083    -0.03800
C1522       C  0.84701448  0.67639380  0.14855640    -0.40300
H1523       H  0.81142834  0.57340478  0.16142315     0.12400
H1524       H  0.80736629  0.57275748  0.17351663     0.12100
H1525       H  0.85134595  0.71540289  0.17345538     0.11500
H1526       H  0.85543834  0.71599154  0.16128774     0.11800
H1527       H  0.84048450  0.67959295  0.18413052     0.14500
H1528       H  0.80098541  0.57658661  0.18430345     0.13300
H1529       H  0.82104596  0.60797986  0.15085761     0.10900
H1530       H  0.86032620  0.71081436  0.15029011     0.13000
C1531       C  0.73430157  0.99597369  0.24601956     0.19000
C1532       C  0.69131280  0.97532722  0.24890556    -0.19000
C1533       C  0.68103326  0.94642550  0.25438590    -0.11300
C1534       C  0.71371359  0.93751277  0.25714221     0.21300
C1535       C  0.75730053  0.95954236  0.25442047    -0.20700
C1536       C  0.76752879  0.98832405  0.24889337    -0.11500
C1537       C  0.70370546  0.90697221  0.26300641    -0.15700
C1538       C  0.66174503  0.87349383  0.26442903    -0.29500
C1539       C  0.74293378  0.02526191  0.24005499    -0.03800
C1540       C  0.77348879  0.03155119  0.23533810    -0.40300
H1541       H  0.66533516  0.98121332  0.24686387     0.12400
H1542       H  0.64762475  0.93182727  0.25650279     0.12100
H1543       H  0.78339802  0.95414703  0.25654043     0.11500
H1544       H  0.80150891  0.00484396  0.24694702     0.11800
H1545       H  0.73158141  0.91221106  0.26622679     0.14500
H1546       H  0.63398891  0.86682804  0.26109584     0.13300
H1547       H  0.72075584  0.03905045  0.23923908     0.10900
H1548       H  0.79384841  0.01550524  0.23584595     0.13000
C1549       C  0.62714868  0.77815868  0.34002770     0.19000
C1550       C  0.58965826  0.76627382  0.33584493    -0.19000
C1551       C  0.59336975  0.76594489  0.32886036    -0.11300
C1552       C  0.63490388  0.77738251  0.32588490     0.21300
C1553       C  0.67212796  0.78849288  0.33007696    -0.20700
C1554       C  0.66843032  0.78887252  0.33704906    -0.11500
C1555       C  0.64221563  0.78022444  0.31849971    -0.15700
C1556       C  0.61085427  0.77191341  0.31373136    -0.29500
C1557       C  0.62087149  0.77739355  0.34742534    -0.03800
C1558       C  0.65406699  0.79242459  0.35209709    -0.40300
H1559       H  0.55725851  0.75742576  0.33799259     0.12400
H1560       H  0.56372239  0.75711750  0.32587464     0.12100
H1561       H  0.70455354  0.79730839  0.32794288     0.11500
H1562       H  0.69799315  0.79729348  0.34003051     0.11800
H1563       H  0.67659940  0.79179824  0.31690255     0.14500
H1564       H  0.57601128  0.76005927  0.31502345     0.13300
H1565       H  0.58624906  0.76291833  0.34912165     0.10900
H1566       H  0.68914793  0.80740282  0.35067866     0.13000
C1567       C  0.92716555  0.78417187  0.38259696     0.19000
C1568       C  0.89994595  0.76845784  0.38832462    -0.19000
C1569       C  0.85638372  0.76223235  0.38832022    -0.11300
C1570       C  0.83851760  0.77141696  0.38258414     0.21300
C1571       C  0.86485846  0.78533759  0.37672432    -0.20700
C1572       C  0.90876333  0.79168757  0.37673008    -0.11500
C1573       C  0.79533892  0.77189286  0.38328106    -0.15700
C1574       C  0.76909377  0.77160753  0.37818456    -0.29500
C1575       C  0.97533698  0.79582247  0.38323876    -0.03800
C1576       C  0.00399458  0.80423758  0.37809599    -0.40300
H1577       H  0.91297899  0.76233001  0.39291806     0.12400
H1578       H  0.83710186  0.75169306  0.39291779     0.12100
H1579       H  0.85274563  0.79370315  0.37224280     0.11500
H1580       H  0.92868300  0.80450274  0.37223332     0.11800
H1581       H  0.78568891  0.77467676  0.38836762     0.14500
H1582       H  0.77623476  0.76651206  0.37306638     0.13300
H1583       H  0.98801041  0.79794279  0.38830616     0.10900
H1584       H  0.99211345  0.80040594  0.37296312     0.13000
C1585       C  0.46845208  0.82438040  0.37400694     0.19000
C1586       C  0.44156666  0.81769884  0.37970158    -0.19000
C1587       C  0.40700876  0.82850950  0.37952132    -0.11300
C1588       C  0.39867047  0.84604236  0.37364549     0.21300
C1589       C  0.42693657  0.85464913  0.36811671    -0.20700
C1590       C  0.46147119  0.84424075  0.36830853    -0.11500
C1591       C  0.35751139  0.84970900  0.37270024    -0.15700
C1592       C  0.33340639  0.85391341  0.37768670    -0.29500
C1593       C  0.50081598  0.80737172  0.37341268    -0.03800
C1594       C  0.51233253  0.78793984  0.37833804    -0.40300
H1595       H  0.44545980  0.80226239  0.38418742     0.12400
H1596       H  0.38531989  0.82057612  0.38383829     0.12100
H1597       H  0.42118436  0.86792151  0.36352035     0.11500
H1598       H  0.48157998  0.84993472  0.36384931     0.11800
H1599       H  0.34545653  0.84691293  0.36757780     0.14500
H1600       H  0.34584836  0.85928449  0.38280752     0.13300
H1601       H  0.51455340  0.80917589  0.36844370     0.10900
H1602       H  0.50121602  0.78695028  0.38344496     0.13000
C1603       C  0.44111634  0.82168644  0.28482160     0.19000
C1604       C  0.41437920  0.80551903  0.29062527    -0.19000
C1605       C  0.37261267  0.80389016  0.29097065    -0.11300
C1606       C  0.35692334  0.81850518  0.28551945     0.21300
C1607       C  0.38495435  0.83690326  0.27991682    -0.20700
C1608       C  0.42633524  0.83830722  0.27956211    -0.11500
C1609       C  0.31005499  0.81054245  0.28501243    -0.15700
C1610       C  0.27985934  0.79732871  0.29004481    -0.29500
C1611       C  0.48115560  0.81639183  0.28364676    -0.03800
C1612       C  0.50570041  0.81141803  0.28850945    -0.40300
H1613       H  0.42417966  0.79157667  0.29473344     0.12400
H1614       H  0.35192415  0.78893430  0.29534638     0.12100
H1615       H  0.37390620  0.84846628  0.27564287     0.11500
H1616       H  0.44610934  0.85084410  0.27503119     0.11800
H1617       H  0.29917522  0.81416332  0.28004053     0.14500
H1618       H  0.28969822  0.79552659  0.29515511     0.13300
H1619       H  0.48989006  0.81504378  0.27845137     0.10900
H1620       H  0.49943297  0.81513577  0.29373393     0.13000
C1621       C  0.80397511  0.75426705  0.29121496     0.19000
C1622       C  0.80696739  0.72733280  0.29627348    -0.19000
C1623       C  0.84266507  0.71860392  0.29643081    -0.11300
C1624       C  0.87623573  0.73632896  0.29151199     0.21300
C1625       C  0.87206025  0.76117943  0.28620225    -0.20700
C1626       C  0.83627425  0.77013787  0.28605828    -0.11500
C1627       C  0.91794939  0.73402836  0.29268289    -0.15700
C1628       C  0.94781851  0.73936896  0.28789604    -0.29500
C1629       C  0.77024121  0.76926794  0.29205818    -0.03800
C1630       C  0.75875334  0.79013748  0.28736053    -0.40300
H1631       H  0.78267186  0.71466098  0.30031248     0.12400
H1632       H  0.84512614  0.69954848  0.30058808     0.12100
H1633       H  0.89782611  0.77627510  0.28240028     0.11500
H1634       H  0.83572613  0.79163879  0.28213091     0.11800
H1635       H  0.92545471  0.72994429  0.29784811     0.14500
H1636       H  0.94001600  0.74080205  0.28265630     0.13300
H1637       H  0.75517356  0.76426668  0.29699781     0.10900
H1638       H  0.77099719  0.79369010  0.28226648     0.13000
C1639       C  0.13745804  0.79239901  0.34081062     0.19000
C1640       C  0.14031165  0.75884034  0.33712032    -0.19000
C1641       C  0.13925730  0.75871671  0.33011347    -0.11300
C1642       C  0.13566842  0.79256429  0.32664946     0.21300
C1643       C  0.13292608  0.82614298  0.33034159    -0.20700
C1644       C  0.13400879  0.82628775  0.33733594    -0.11500
C1645       C  0.13196753  0.79317986  0.31924591    -0.15700
C1646       C  0.14156669  0.76903675  0.31485650    -0.29500
C1647       C  0.14092414  0.79202772  0.34822493    -0.03800
C1648       C  0.13123752  0.81663247  0.35250879    -0.40300
H1649       H  0.14322677  0.73243527  0.33967549     0.12400
H1650       H  0.14050499  0.73172831  0.32747493     0.12100
H1651       H  0.13005008  0.85260095  0.32779516     0.11500
H1652       H  0.13289568  0.85341649  0.33994950     0.11800
H1653       H  0.12009040  0.81511944  0.31730023     0.14500
H1654       H  0.15489374  0.74781431  0.31653001     0.13300
H1655       H  0.15303806  0.77049389  0.35025704     0.10900
H1656       H  0.11791023  0.83762975  0.35073423     0.13000
C1657       C  0.96686700  0.68099152  0.24320119     0.19000
C1658       C  0.99057369  0.72495909  0.24579770    -0.19000
C1659       C  0.01884432  0.73474722  0.25134903    -0.11300
C1660       C  0.02399377  0.70057376  0.25444598     0.21300
C1661       C  0.00137024  0.65684479  0.25173117    -0.20700
C1662       C  0.97297399  0.64701360  0.24616840    -0.11500
C1663       C  0.05268767  0.70965843  0.26049171    -0.15700
C1664       C  0.05940986  0.74213618  0.26490430    -0.29500
C1665       C  0.93794064  0.67264370  0.23721469    -0.03800
C1666       C  0.90370496  0.63169619  0.23550676    -0.40300
H1667       H  0.98716366  0.75189775  0.24352373     0.12400
H1668       H  0.03705158  0.76927928  0.25312536     0.12100
H1669       H  0.00534436  0.63012851  0.25396051     0.11500
H1670       H  0.95664018  0.61306526  0.24415915     0.11800
H1671       H  0.06602594  0.68736639  0.26156303     0.14500
H1672       H  0.04325582  0.76220183  0.26413256     0.13300
H1673       H  0.94479986  0.70165105  0.23414329     0.10900
H1674       H  0.89510721  0.60251595  0.23862618     0.13000
C1675       C  0.89690855  0.10164034  0.38130142     0.19000
C1676       C  0.88805907  0.07269774  0.37576614    -0.19000
C1677       C  0.84997331  0.02906038  0.37570032    -0.11300
C1678       C  0.82001808  0.01361227  0.38116758     0.21300
C1679       C  0.82804290  0.04343472  0.38651870    -0.20700
C1680       C  0.86589116  0.08670004  0.38658914    -0.11500
C1681       C  0.78289248  0.96582485  0.38191647    -0.15700
C1682       C  0.76525129  0.93465869  0.37696892    -0.29500
C1683       C  0.94052985  0.14455195  0.38225567    -0.03800
C1684       C  0.96966213  0.16874126  0.37733939    -0.40300
H1685       H  0.91167366  0.08255688  0.37166368     0.12400
H1686       H  0.84553167  0.00696019  0.37153247     0.12100
H1687       H  0.80572503  0.03263835  0.39080339     0.11500
H1688       H  0.87184899  0.10803574  0.39093296     0.11800
H1689       H  0.76968114  0.95557202  0.38695134     0.14500
H1690       H  0.77588599  0.94401703  0.37182152     0.13300
H1691       H  0.94999994  0.15574534  0.38740800     0.10900
H1692       H  0.96033907  0.15993432  0.37212305     0.13000
C1693       C  0.41072708  0.53877107  0.37483513     0.19000
C1694       C  0.39341409  0.50881453  0.36939832    -0.19000
C1695       C  0.34953998  0.47215510  0.36951242    -0.11300
C1696       C  0.32131019  0.46463047  0.37502806     0.21300
C1697       C  0.33928865  0.49336388  0.38065257    -0.20700
C1698       C  0.38365698  0.53007254  0.38055560    -0.11500
C1699       C  0.27271018  0.42958985  0.37427330    -0.15700
C1700       C  0.24035029  0.41902537  0.37890514    -0.29500
C1701       C  0.45446519  0.58128673  0.37392139    -0.03800
C1702       C  0.48190590  0.60730483  0.37890217    -0.40300
H1703       H  0.41343250  0.51471267  0.36492316     0.12400
H1704       H  0.33694188  0.45072160  0.36511433     0.12100
H1705       H  0.31895957  0.48908384  0.38501639     0.11500
H1706       H  0.39566000  0.55289924  0.38479793     0.11800
H1707       H  0.26241741  0.41363800  0.36937502     0.14500
H1708       H  0.24886515  0.43301994  0.38392070     0.13300
H1709       H  0.46422839  0.59207871  0.36877395     0.10900
H1710       H  0.47464225  0.59621512  0.38407338     0.13000
C1711       C  0.17508934  0.04338140  0.38145837     0.19000
C1712       C  0.15955322  0.05513072  0.37567233    -0.19000
C1713       C  0.15156252  0.09165104  0.37580416    -0.11300
C1714       C  0.15891435  0.11696412  0.38172421     0.21300
C1715       C  0.17631929  0.10631873  0.38735928    -0.20700
C1716       C  0.18445745  0.07022462  0.38722005    -0.11500
C1717       C  0.14544517  0.15191833  0.38252072    -0.15700
C1718       C  0.13729138  0.17293224  0.37745563    -0.29500
C1719       C  0.17620179  0.00054820  0.38212840    -0.03800
C1720       C  0.16937019  0.97106967  0.37714657    -0.40300
H1721       H  0.15132178  0.03507584  0.37115094     0.12400
H1722       H  0.13752857  0.09831536  0.37137988     0.12100
H1723       H  0.18233991  0.12516205  0.39198352     0.11500
H1724       H  0.19629631  0.06203292  0.39175905     0.11800
H1725       H  0.14223099  0.16093983  0.38763260     0.14500
H1726       H  0.14238056  0.16654620  0.37229722     0.13300
H1727       H  0.17936922  0.99099553  0.38721291     0.10900
H1728       H  0.16822397  0.97975903  0.37195309     0.13000
C1729       C  0.12982572  0.53737678  0.37925120     0.19000
C1730       C  0.16376055  0.57561959  0.38250828    -0.19000
C1731       C  0.16699078  0.61761159  0.38162710    -0.11300
C1732       C  0.13684735  0.62213467  0.37732906     0.21300
C1733       C  0.10229574  0.58362627  0.37417224    -0.20700
C1734       C  0.09838485  0.54134021  0.37519554    -0.11500
C1735       C  0.14445162  0.66724464  0.37545675    -0.15700
C1736       C  0.16266991  0.70238915  0.37971775    -0.29500
C1737       C  0.13241951  0.49569246  0.37921868    -0.03800
C1738       C  0.09614246  0.45433960  0.37967259    -0.40300
H1739       H  0.18877489  0.57323095  0.38554549     0.12400
H1740       H  0.19479763  0.64685398  0.38397943     0.12100
H1741       H  0.07920044  0.58653092  0.37076021     0.11500
H1742       H  0.07266849  0.51235284  0.37248939     0.11800
H1743       H  0.13637864  0.67198040  0.37035535     0.14500
H1744       H  0.16774196  0.69720325  0.38494719     0.13300
H1745       H  0.16556577  0.49921527  0.37857157     0.10900
H1746       H  0.06324258  0.44989000  0.38087139     0.13000
C1747       C  0.94467988  0.10829160  0.29324049     0.19000
C1748       C  0.91718215  0.09777214  0.29891399    -0.19000
C1749       C  0.87315024  0.06159806  0.29882006    -0.11300
C1750       C  0.85533272  0.03521744  0.29303473     0.21300
C1751       C  0.88190634  0.04686810  0.28722032    -0.20700
C1752       C  0.92622952  0.08309858  0.28731856    -0.11500
C1753       C  0.81155516  0.99283497  0.29359680    -0.15700
C1754       C  0.78558611  0.96885886  0.28838360    -0.29500
C1755       C  0.99310352  0.14266201  0.29401827    -0.03800
C1756       C  0.02357962  0.15780177  0.28904427    -0.40300
H1757       H  0.93037893  0.11650390  0.30354086     0.12400
H1758       H  0.85344716  0.05317573  0.30337442     0.12100
H1759       H  0.86964872  0.02669319  0.28270908     0.11500
H1760       H  0.94613489  0.08954329  0.28284025     0.11800
H1761       H  0.80089593  0.97987294  0.29863826     0.14500
H1762       H  0.79346680  0.98197977  0.28331683     0.13300
H1763       H  0.00468617  0.15494293  0.29907565     0.10900
H1764       H  0.01350672  0.14823604  0.28387811     0.13000
C1765       C  0.36669405  0.48111586  0.28333740     0.19000
C1766       C  0.38078920  0.50682624  0.28928582    -0.19000
C1767       C  0.41957116  0.54974498  0.28934514    -0.11300
C1768       C  0.44490694  0.56770195  0.28345451     0.21300
C1769       C  0.43151127  0.54119863  0.27762039    -0.20700
C1770       C  0.39297958  0.49859010  0.27756120    -0.11500
C1771       C  0.48290075  0.61492310  0.28289864    -0.15700
C1772       C  0.50320128  0.64343059  0.28807052    -0.29500
C1773       C  0.32261435  0.43872876  0.28262815    -0.03800
C1774       C  0.29573492  0.41434282  0.28772525    -0.40300
H1775       H  0.36104277  0.49510134  0.29381469     0.12400
H1776       H  0.42817364  0.56920807  0.29392817     0.12100
H1777       H  0.45019069  0.55408173  0.27300484     0.11500
H1778       H  0.38286151  0.47976723  0.27289846     0.11800
H1779       H  0.49413185  0.62725432  0.27784859     0.14500
H1780       H  0.49444093  0.63212231  0.29320291     0.13300
H1781       H  0.31058485  0.42838761  0.27752768     0.10900
H1782       H  0.30701186  0.42264125  0.29288107     0.13000
C1783       C  0.15264331  0.97629505  0.29431977     0.19000
C1784       C  0.17796536  0.00546873  0.29955801    -0.19000
C1785       C  0.18854982  0.05057548  0.29953580    -0.11300
C1786       C  0.17425448  0.06751152  0.29425615     0.21300
C1787       C  0.15034175  0.03880693  0.28886884    -0.20700
C1788       C  0.13958638  0.99361481  0.28890215    -0.11500
C1789       C  0.17896227  0.11279861  0.29498696    -0.15700
C1790       C  0.17853700  0.13758059  0.28978449    -0.29500
C1791       C  0.13649104  0.92738251  0.29505311    -0.03800
C1792       C  0.12169987  0.89783083  0.28992634    -0.40300
H1793       H  0.18824342  0.99291643  0.30380123     0.12400
H1794       H  0.20659877  0.07191301  0.30377155     0.12100
H1795       H  0.13741188  0.05024578  0.28482580     0.11500
H1796       H  0.11888640  0.97199045  0.28486796     0.11800
H1797       H  0.18024442  0.12497044  0.30006305     0.14500
H1798       H  0.17997009  0.12735412  0.28468125     0.13300
H1799       H  0.13639868  0.91509113  0.30008187     0.10900
H1800       H  0.12438544  0.90943600  0.28479951     0.13000
C1801       C  0.11443938  0.56065382  0.28351726     0.19000
C1802       C  0.13132003  0.54855780  0.28910565    -0.19000
C1803       C  0.13591840  0.50998722  0.28889123    -0.11300
C1804       C  0.12369041  0.48280230  0.28308538     0.21300
C1805       C  0.10586317  0.49444944  0.27760521    -0.20700
C1806       C  0.10125797  0.53279277  0.27782086    -0.11500
C1807       C  0.13222558  0.44436584  0.28229871    -0.15700
C1808       C  0.13633463  0.42120504  0.28744453    -0.29500
C1809       C  0.11544089  0.60459262  0.28303565    -0.03800
C1810       C  0.11763698  0.63048445  0.28828890    -0.40300
H1811       H  0.14312622  0.56988748  0.29351042     0.12400
H1812       H  0.15098207  0.50290171  0.29315234     0.12100
H1813       H  0.09637216  0.47432005  0.27306473     0.11500
H1814       H  0.08855175  0.54148645  0.27342457     0.11800
H1815       H  0.13470469  0.43440584  0.27721422     0.14500
H1816       H  0.13160418  0.42896238  0.29254880     0.13300
H1817       H  0.11621300  0.61709475  0.27800041     0.10900
H1818       H  0.11458555  0.61807022  0.29337447     0.13000
C1819       C  0.12718447  0.29168042  0.32576870     0.19000
C1820       C  0.11737530  0.25609558  0.33022861    -0.19000
C1821       C  0.11589993  0.26173005  0.33714879    -0.11300
C1822       C  0.12374882  0.30319505  0.33977652     0.21300
C1823       C  0.13319226  0.33871117  0.33530259    -0.20700
C1824       C  0.13486724  0.33311277  0.32837718    -0.11500
C1825       C  0.12359105  0.31177197  0.34709463    -0.15700
C1826       C  0.11024782  0.28053303  0.35204265    -0.29500
C1827       C  0.12751256  0.28310659  0.31846723    -0.03800
C1828       C  0.14777963  0.31499666  0.31367881    -0.40300
H1829       H  0.11118024  0.22372471  0.32834818     0.12400
H1830       H  0.10905804  0.23363850  0.34037254     0.12100
H1831       H  0.13923126  0.37104763  0.33717437     0.11500
H1832       H  0.14150563  0.36099076  0.32510825     0.11800
H1833       H  0.13491870  0.34662269  0.34846777     0.14500
H1834       H  0.09756028  0.24515554  0.35092951     0.13300
H1835       H  0.11152912  0.24776676  0.31700138     0.10900
H1836       H  0.16594572  0.35063117  0.31495580     0.13000
C1837       C  0.24685506  0.20047004  0.24322845     0.19000
C1838       C  0.20282606  0.18074945  0.24579058    -0.19000
C1839       C  0.19293321  0.19949499  0.25134954    -0.11300
C1840       C  0.22693864  0.23884281  0.25449114     0.21300
C1841       C  0.27081207  0.25882862  0.25189200    -0.20700
C1842       C  0.28076332  0.23998068  0.24636265    -0.11500
C1843       C  0.21786001  0.26077327  0.26032743    -0.15700
C1844       C  0.18370103  0.23814766  0.26466539    -0.29500
C1845       C  0.25539373  0.18044190  0.23708501    -0.03800
C1846       C  0.29677714  0.18954572  0.23509410    -0.40300
H1847       H  0.17579193  0.15079470  0.24344678     0.12400
H1848       H  0.15840570  0.18362840  0.25305292     0.12100
H1849       H  0.29762547  0.28936240  0.25414549     0.11500
H1850       H  0.31486862  0.25738560  0.24448433     0.11800
H1851       H  0.24168467  0.29619780  0.26130609     0.14500
H1852       H  0.16161369  0.20203854  0.26402700     0.13300
H1853       H  0.22640291  0.15747894  0.23406840     0.10900
H1854       H  0.32597243  0.21109573  0.23815447     0.13000
C1855       C  0.03241521  0.32746079  0.41279776     0.19000
C1856       C  0.98821182  0.31033155  0.41512872    -0.19000
C1857       C  0.97931038  0.33004446  0.42065371    -0.11300
C1858       C  0.01469934  0.36733746  0.42401226     0.21300
C1859       C  0.05904302  0.38302956  0.42184053    -0.20700
C1860       C  0.06786530  0.36346315  0.41631343    -0.11500
C1861       C  0.00742016  0.39043754  0.42984779    -0.15700
C1862       C  0.96714728  0.38547343  0.43156398    -0.29500
C1863       C  0.04066720  0.30771437  0.40666002    -0.03800
C1864       C  0.07430986  0.33303264  0.40239344    -0.40300
H1865       H  0.96035346  0.28216290  0.41258275     0.12400
H1866       H  0.94473665  0.31560509  0.42226027     0.12100
H1867       H  0.08709096  0.41097516  0.42439246     0.11500
H1868       H  0.10255585  0.37653671  0.41482546     0.11800
H1869       H  0.03686361  0.41332129  0.43279405     0.14500
H1870       H  0.93725852  0.36363565  0.42865520     0.13300
H1871       H  0.01669999  0.27286388  0.40536018     0.10900
H1872       H  0.09594319  0.36880605  0.40342249     0.13000
C1873       C  0.97717211  0.50294429  0.49193805     0.19000
C1874       C  0.93629371  0.49095358  0.49516643    -0.19000
C1875       C  0.93545797  0.49724052  0.50210003    -0.11300
C1876       C  0.97523091  0.51567164  0.50597604     0.21300
C1877       C  0.01601905  0.52750575  0.50273208    -0.20700
C1878       C  0.01684998  0.52128845  0.49581764    -0.11500
C1879       C  0.97207883  0.52130825  0.51334388    -0.15700
C1880       C  0.00733828  0.54206879  0.51764911    -0.29500
C1881       C  0.98106132  0.49788916  0.48458206    -0.03800
C1882       C  0.94671238  0.47673926  0.48013388    -0.40300
H1883       H  0.90499443  0.47710986  0.49239418     0.12400
H1884       H  0.90345852  0.48775566  0.50444728     0.12100
H1885       H  0.04744842  0.54129245  0.50546013     0.11500
H1886       H  0.04890714  0.53082467  0.49348439     0.11800
H1887       H  0.93824445  0.50797814  0.51532209     0.14500
H1888       H  0.04177896  0.55691941  0.51591801     0.13300
H1889       H  0.01530048  0.51202346  0.48273269     0.10900
H1890       H  0.91187809  0.46089864  0.48172832     0.13000
C1891       C  0.21642774  0.74818186  0.45396885     0.19000
C1892       C  0.21537905  0.70979632  0.45125277    -0.19000
C1893       C  0.17510031  0.66837821  0.45101972    -0.11300
C1894       C  0.13523608  0.66437248  0.45366565     0.21300
C1895       C  0.13596925  0.70321312  0.45614837    -0.20700
C1896       C  0.17607785  0.74492644  0.45622365    -0.11500
C1897       C  0.09525284  0.61937161  0.45496416    -0.15700
C1898       C  0.08417178  0.58242176  0.45122216    -0.29500
C1899       C  0.26061408  0.78914848  0.45526136    -0.03800
C1900       C  0.26783532  0.83143366  0.45467686    -0.40300
H1901       H  0.24619319  0.71149217  0.44954631     0.12400
H1902       H  0.17604734  0.63897496  0.44922149     0.12100
H1903       H  0.10586241  0.70084455  0.45830274     0.11500
H1904       H  0.17611272  0.77382687  0.45845951     0.11800
H1905       H  0.07620141  0.61592847  0.45948921     0.14500
H1906       H  0.10068610  0.58564002  0.44645216     0.13300
H1907       H  0.28851954  0.78424472  0.45671229     0.10900
H1908       H  0.24180979  0.83732753  0.45262151     0.13000
C1909       C  0.67114889  0.16522627  0.45277330     0.19000
C1910       C  0.69867838  0.17558164  0.44710555    -0.19000
C1911       C  0.74120313  0.21419946  0.44694733    -0.11300
C1912       C  0.75753883  0.24373174  0.45244922     0.21300
C1913       C  0.73096300  0.23260164  0.45827245    -0.20700
C1914       C  0.68807464  0.19363628  0.45843375    -0.11500
C1915       C  0.79922301  0.28808847  0.45146797    -0.15700
C1916       C  0.82404277  0.31760562  0.45634166    -0.29500
C1917       C  0.62374505  0.12754315  0.45218567    -0.03800
C1918       C  0.59505897  0.10737538  0.45732101    -0.40300
H1919       H  0.68658182  0.15449735  0.44266612     0.12400
H1920       H  0.76074163  0.22195407  0.44238340     0.12100
H1921       H  0.74197927  0.25499985  0.46256186     0.11500
H1922       H  0.66756956  0.18731858  0.46285037     0.11800
H1923       H  0.80908198  0.29778894  0.44628858     0.14500
H1924       H  0.81722439  0.30842576  0.46158606     0.13300
H1925       H  0.61151670  0.11629035  0.44711749     0.10900
H1926       H  0.60649142  0.11608240  0.46246621     0.13000
C1927       C  0.27460737  0.92734242  0.41144806     0.19000
C1928       C  0.28343737  0.96734396  0.41472912    -0.19000
C1929       C  0.31304866  0.98367628  0.42020168    -0.11300
C1930       C  0.33402500  0.96004186  0.42256277     0.21300
C1931       C  0.32580121  0.92038798  0.41922586    -0.20700
C1932       C  0.29611566  0.90394771  0.41379575    -0.11500
C1933       C  0.36373307  0.97705503  0.42855705    -0.15700
C1934       C  0.36908707  0.94927168  0.43274927    -0.29500
C1935       C  0.24274651  0.91115050  0.40565384    -0.03800
C1936       C  0.23969144  0.87976783  0.40127870    -0.40300
H1937       H  0.26739513  0.98607102  0.41304934     0.12400
H1938       H  0.31897551  0.01442581  0.42267015     0.12100
H1939       H  0.34231473  0.90188717  0.42076962     0.11500
H1940       H  0.28995909  0.87255248  0.41157274     0.11800
H1941       H  0.37898227  0.01269879  0.42980394     0.14500
H1942       H  0.35125557  0.91312406  0.43183003     0.13300
H1943       H  0.22221357  0.92678498  0.40482488     0.10900
H1944       H  0.26110546  0.86499612  0.40179409     0.13000
C1945       C  0.48148543  0.00888767  0.50863416     0.19000
C1946       C  0.50918595  0.03807594  0.50357523    -0.19000
C1947       C  0.49677693  0.02924765  0.49683988    -0.11300
C1948       C  0.45592872  0.99096324  0.49499302     0.21300
C1949       C  0.42826556  0.96154185  0.50004341    -0.20700
C1950       C  0.44072917  0.97039140  0.50680311    -0.11500
C1951       C  0.44176575  0.97924871  0.48788615    -0.15700
C1952       C  0.45962300  0.00787824  0.48265663    -0.29500
C1953       C  0.49637412  0.02153767  0.51569059    -0.03800
C1954       C  0.47758912  0.99570814  0.52117968    -0.40300
H1955       H  0.54085996  0.06797115  0.50483584     0.12400
H1956       H  0.51975129  0.05218275  0.49313723     0.12100
H1957       H  0.39669987  0.93161897  0.49875396     0.11500
H1958       H  0.41813173  0.94733232  0.51052992     0.11800
H1959       H  0.41479033  0.94491896  0.48693596     0.14500
H1960       H  0.48530568  0.04287010  0.48341859     0.13300
H1961       H  0.52537567  0.05510296  0.51637311     0.10900
H1962       H  0.44931344  0.96159383  0.52076774     0.13000
C1963       C  0.28428627  0.85571900  0.54322678     0.19000
C1964       C  0.26836015  0.82356885  0.53802584    -0.19000
C1965       C  0.22719231  0.78293785  0.53865726    -0.11300
C1966       C  0.20117151  0.77401522  0.54450844     0.21300
C1967       C  0.21567647  0.80754784  0.54946163    -0.20700
C1968       C  0.25625263  0.84811935  0.54879530    -0.11500
C1969       C  0.16187645  0.72884323  0.54604736    -0.15700
C1970       C  0.13559031  0.69798197  0.54143624    -0.29500
C1971       C  0.33132959  0.89489054  0.54301263    -0.03800
C1972       C  0.35526420  0.91281030  0.54868343    -0.40300
H1973       H  0.28893251  0.82875921  0.53363890     0.12400
H1974       H  0.21726861  0.75770948  0.53475292     0.12100
H1975       H  0.19606465  0.80180646  0.55397753     0.11500
H1976       H  0.26605483  0.87288603  0.55276391     0.11800
H1977       H  0.15474809  0.72043869  0.55132187     0.14500
H1978       H  0.14056694  0.70630373  0.53614343     0.13300
H1979       H  0.34792309  0.90590814  0.53819069     0.10900
H1980       H  0.33963646  0.89924929  0.55349005     0.13000
C1981       C  0.81027126  0.35568875  0.54020849     0.19000
C1982       C  0.78662313  0.33310729  0.53439883    -0.19000
C1983       C  0.75211920  0.28838450  0.53464603    -0.11300
C1984       C  0.73999359  0.26457969  0.54071217     0.21300
C1985       C  0.76411457  0.28652537  0.54656746    -0.20700
C1986       C  0.79908216  0.33181287  0.54631786    -0.11500
C1987       C  0.69986117  0.21849458  0.54057152    -0.15700
C1988       C  0.68322381  0.18871581  0.54567908    -0.29500
C1989       C  0.84485661  0.40423145  0.53949129    -0.03800
C1990       C  0.87072949  0.43236751  0.54441843    -0.40300
H1991       H  0.79431514  0.35039465  0.52961959     0.12400
H1992       H  0.73414783  0.27257923  0.53005195     0.12100
H1993       H  0.75550962  0.26943476  0.55134885     0.11500
H1994       H  0.81644969  0.34789743  0.55091667     0.11800
H1995       H  0.68163475  0.20892447  0.53583300     0.14500
H1996       H  0.70073351  0.19543596  0.55044608     0.13300
H1997       H  0.84859145  0.41799032  0.53447163     0.10900
H1998       H  0.86885620  0.42040328  0.54950108     0.13000
C1999       C  0.69613623  0.51781574  0.45056648     0.19000
C2000       C  0.71185668  0.50767031  0.45648546    -0.19000
C2001       C  0.74970769  0.50180449  0.45636304    -0.11300
C2002       C  0.77268431  0.50599370  0.45031609     0.21300
C2003       C  0.75775125  0.51769802  0.44449162    -0.20700
C2004       C  0.72008905  0.52342952  0.44461222    -0.11500
C2005       C  0.80963709  0.49494664  0.44962800    -0.15700
C2006       C  0.83128217  0.48762968  0.45472860    -0.29500
C2007       C  0.65228531  0.51730745  0.45013098    -0.03800
C2008       C  0.62867541  0.51958601  0.45538802    -0.40300
H2009       H  0.69387516  0.50202698  0.46115220     0.12400
H2010       H  0.75944605  0.49215889  0.46095497     0.12100
H2011       H  0.77451021  0.52111245  0.43975250     0.11500
H2012       H  0.70875842  0.53092155  0.43996238     0.11800
H2013       H  0.81879873  0.49158600  0.44453723     0.14500
H2014       H  0.82428850  0.49205751  0.45988051     0.13300
H2015       H  0.63748432  0.51228625  0.44515559     0.10900
H2016       H  0.64305842  0.52612635  0.46039252     0.13000
C2017       C  0.27606379  0.47000068  0.45544766     0.19000
C2018       C  0.25399678  0.47783359  0.45010590    -0.19000
C2019       C  0.20911050  0.46786730  0.45075267    -0.11300
C2020       C  0.18556166  0.44972468  0.45676336     0.21300
C2021       C  0.20682505  0.43962086  0.46194069    -0.20700
C2022       C  0.25123203  0.44892597  0.46126363    -0.11500
C2023       C  0.14148052  0.44650195  0.45815597    -0.15700
C2024       C  0.10934879  0.43715744  0.45351003    -0.29500
C2025       C  0.32537217  0.48624973  0.45502561    -0.03800
C2026       C  0.35177551  0.50016314  0.46053120    -0.40300
H2027       H  0.27216449  0.49368671  0.44555348     0.12400
H2028       H  0.19381625  0.47668792  0.44670715     0.12100
H2029       H  0.18930141  0.42540841  0.46660195     0.11500
H2030       H  0.26628190  0.44045960  0.46538066     0.11800
H2031       H  0.13558041  0.45280033  0.46329244     0.14500
H2032       H  0.11310692  0.42767680  0.44845928     0.13300
H2033       H  0.34062591  0.49022938  0.45012434     0.10900
H2034       H  0.33675137  0.49922573  0.46535363     0.13000
C2035       C  0.43846619  0.18790173  0.45217012     0.19000
C2036       C  0.44672736  0.21168536  0.45826575    -0.19000
C2037       C  0.45301410  0.25562319  0.45837991    -0.11300
C2038       C  0.45120192  0.27662191  0.45239767     0.21300
C2039       C  0.44157782  0.25210756  0.44638526    -0.20700
C2040       C  0.43533791  0.20853281  0.44627335    -0.11500
C2041       C  0.46087440  0.32428231  0.45199203    -0.15700
C2042       C  0.46951437  0.35273700  0.45720845    -0.29500
C2043       C  0.43743390  0.14391427  0.45149867    -0.03800
C2044       C  0.43649374  0.11740850  0.45658828    -0.40300
H2045       H  0.45001941  0.19739098  0.46291795     0.12400
H2046       H  0.46044092  0.27313780  0.46312900     0.12100
H2047       H  0.43984996  0.26712241  0.44169205     0.11500
H2048       H  0.42920865  0.19130005  0.44149604     0.11800
H2049       H  0.46133388  0.33689890  0.44697627     0.14500
H2050       H  0.46856243  0.34157463  0.46231687     0.13300
H2051       H  0.43992946  0.13391728  0.44641637     0.10900
H2052       H  0.43251699  0.12514302  0.46172385     0.13000
C2053       C  0.47589625  0.81303451  0.46175298     0.19000
C2054       C  0.50263308  0.81022640  0.46686273    -0.19000
C2055       C  0.51303456  0.77557084  0.46688703    -0.11300
C2056       C  0.49708515  0.74285365  0.46179290     0.21300
C2057       C  0.47123405  0.74616082  0.45655502    -0.20700
C2058       C  0.46070272  0.78089053  0.45653702    -0.11500
C2059       C  0.50329878  0.70305608  0.46259973    -0.15700
C2060       C  0.50042066  0.67540372  0.45756734    -0.29500
C2061       C  0.46099228  0.84694996  0.46246511    -0.03800
C2062       C  0.44394908  0.86037537  0.45745084    -0.40300
H2063       H  0.51448822  0.83424184  0.47096873     0.12400
H2064       H  0.53257465  0.77355880  0.47101705     0.12100
H2065       H  0.45705823  0.72074079  0.45265965     0.11500
H2066       H  0.43886527  0.78095279  0.45261648     0.11800
H2067       H  0.50876194  0.69524899  0.46767763     0.14500
H2068       H  0.49710228  0.68358365  0.45241872     0.13300
H2069       H  0.46325670  0.86075400  0.46745355     0.10900
H2070       H  0.44300118  0.84873903  0.45236328     0.13000
C2071       C  0.56049695  0.65485320  0.41049128     0.19000
C2072       C  0.51708394  0.63431102  0.41328560    -0.19000
C2073       C  0.50728634  0.60894777  0.41920355    -0.11300
C2074       C  0.54077190  0.60323378  0.42242132     0.21300
C2075       C  0.58371116  0.62269755  0.41952045    -0.20700
C2076       C  0.59354833  0.64815715  0.41364870    -0.11500
C2077       C  0.53237557  0.57627435  0.42866733    -0.15700
C2078       C  0.50017042  0.56886980  0.43317593    -0.29500
C2079       C  0.56978651  0.68140497  0.40416388    -0.03800
C2080       C  0.61164149  0.71295645  0.40227219    -0.40300
H2081       H  0.49068746  0.63805011  0.41089423     0.12400
H2082       H  0.47337219  0.59331347  0.42116066     0.12100
H2083       H  0.60994093  0.61825445  0.42182143     0.11500
H2084       H  0.62687845  0.66161206  0.41155043     0.11800
H2085       H  0.55562388  0.56418396  0.42978820     0.14500
H2086       H  0.47814243  0.58277180  0.43237169     0.13300
H2087       H  0.54128914  0.67494586  0.40099585     0.10900
H2088       H  0.64020796  0.72107072  0.40550953     0.13000
C2089       C  0.19779100  0.51900567  0.54419463     0.19000
C2090       C  0.21293715  0.50283401  0.54946863    -0.19000
C2091       C  0.25152317  0.49909934  0.54879819    -0.11300
C2092       C  0.27635762  0.51156674  0.54278988     0.21300
C2093       C  0.26044310  0.52654021  0.53742513    -0.20700
C2094       C  0.22148797  0.53009260  0.53809557    -0.11500
C2095       C  0.32163637  0.51513393  0.54229670    -0.15700
C2096       C  0.33673536  0.49594329  0.54672889    -0.29500
C2097       C  0.16040065  0.52823278  0.54558035    -0.03800
C2098       C  0.13467319  0.53298996  0.54088374    -0.40300
H2099       H  0.19567155  0.49449561  0.55424363     0.12400
H2100       H  0.26276138  0.48880216  0.55316800     0.12100
H2101       H  0.27912370  0.53706534  0.53277642     0.11500
H2102       H  0.21148688  0.54361684  0.53395584     0.11800
H2103       H  0.34506967  0.53839476  0.53861566     0.14500
H2104       H  0.31436015  0.47295831  0.55049831     0.13300
H2105       H  0.15394565  0.53153077  0.55082209     0.10900
H2106       H  0.13851285  0.52742306  0.53563205     0.13000
C2107       C  0.79134405  0.59295979  0.54238880     0.19000
C2108       C  0.76631640  0.57550408  0.54832088    -0.19000
C2109       C  0.72087870  0.56432080  0.54858413    -0.11300
C2110       C  0.69980330  0.57038257  0.54291824     0.21300
C2111       C  0.72569588  0.59008134  0.53716997    -0.20700
C2112       C  0.77074652  0.60124011  0.53691246    -0.11500
C2113       C  0.65033712  0.55223940  0.54238462    -0.15700
C2114       C  0.62085143  0.53746248  0.54750947    -0.29500
C2115       C  0.83611869  0.59694829  0.54123935    -0.03800
C2116       C  0.86239037  0.59326753  0.54595344    -0.40300
H2117       H  0.78066117  0.56800110  0.55262664     0.12400
H2118       H  0.70198818  0.54872559  0.55308443     0.12100
H2119       H  0.71047556  0.59514600  0.53272839     0.11500
H2120       H  0.78899333  0.61447009  0.53227183     0.11800
H2121       H  0.63716123  0.54964874  0.53733786     0.14500
H2122       H  0.63249958  0.54151635  0.55265886     0.13300
H2123       H  0.84645329  0.59971571  0.53603335     0.10900
H2124       H  0.85472022  0.59256564  0.55123576     0.13000
C2125       C  0.50840112  0.74689891  0.55106145     0.19000
C2126       C  0.49467169  0.76286356  0.54555231    -0.19000
C2127       C  0.49731679  0.80517709  0.54584763    -0.11300
C2128       C  0.51375277  0.83218394  0.55165566     0.21300
C2129       C  0.52801661  0.81634436  0.55707601    -0.20700
C2130       C  0.52547679  0.77436837  0.55677798    -0.11500
C2131       C  0.51269300  0.87481357  0.55256416    -0.15700
C2132       C  0.51165127  0.90041769  0.54751839    -0.29500
C2133       C  0.50170608  0.70050357  0.55142181    -0.03800
C2134       C  0.49391093  0.67241291  0.54618555    -0.40300
H2135       H  0.48018712  0.74216801  0.54113449     0.12400
H2136       H  0.48465986  0.81560002  0.54164618     0.12100
H2137       H  0.54038294  0.83617908  0.56162875     0.11500
H2138       H  0.53595375  0.76282545  0.56111895     0.11800
H2139       H  0.51208744  0.88518979  0.55769592     0.14500
H2140       H  0.51392500  0.89178598  0.54235592     0.13300
H2141       H  0.50302864  0.68863714  0.55642649     0.10900
H2142       H  0.49484240  0.68364682  0.54107557     0.13000
C2143       C  0.49484707  0.21471180  0.54908654     0.19000
C2144       C  0.51784563  0.25420400  0.55296446    -0.19000
C2145       C  0.51027649  0.29047063  0.55194840    -0.11300
C2146       C  0.47960197  0.28776484  0.54701078     0.21300
C2147       C  0.45489253  0.24753909  0.54340408    -0.20700
C2148       C  0.46162625  0.21102001  0.54452446    -0.11500
C2149       C  0.47603154  0.32765073  0.54506040    -0.15700
C2150       C  0.47695143  0.35745953  0.54953157    -0.29500
C2151       C  0.50888131  0.17988663  0.54947797    -0.03800
C2152       C  0.50403246  0.15319025  0.54421508    -0.40300
H2153       H  0.54331963  0.25788399  0.55654568     0.12400
H2154       H  0.53016212  0.32140492  0.55475510     0.12100
H2155       H  0.43075705  0.24462466  0.53962914     0.11500
H2156       H  0.44143293  0.18046323  0.54166905     0.11800
H2157       H  0.47234995  0.33239904  0.53975799     0.14500
H2158       H  0.47758363  0.35117462  0.55485798     0.13300
H2159       H  0.52815855  0.17987023  0.55381449     0.10900
H2160       H  0.48764396  0.15530445  0.53968248     0.13000
C2161       C  0.48504654  0.50733387  0.49511082     0.19000
C2162       C  0.45749713  0.51777031  0.49907637    -0.19000
C2163       C  0.46283828  0.52221390  0.50604689    -0.11300
C2164       C  0.49620173  0.51645763  0.50926334     0.21300
C2165       C  0.52373842  0.50594916  0.50530173    -0.20700
C2166       C  0.51840475  0.50152573  0.49831842    -0.11500
C2167       C  0.50231508  0.51873492  0.51670572    -0.15700
C2168       C  0.48205839  0.53271414  0.52117570    -0.29500
C2169       C  0.47818617  0.50457903  0.48768709    -0.03800
C2170       C  0.49982744  0.49320875  0.48306692    -0.40300
H2171       H  0.43147096  0.52249525  0.49676535     0.12400
H2172       H  0.44029318  0.52952026  0.50885329     0.12100
H2173       H  0.54961742  0.50106136  0.50762752     0.11500
H2174       H  0.54064707  0.49386019  0.49549709     0.11800
H2175       H  0.52444620  0.50704346  0.51862640     0.14500
H2176       H  0.46012992  0.54520066  0.51951712     0.13300
H2177       H  0.45377467  0.51369445  0.48589778     0.10900
H2178       H  0.52423661  0.48345063  0.48455011     0.13000
C2179       C  0.07229489  0.61659711  0.92219892     0.19000
C2180       C  0.09652909  0.66394775  0.92203073    -0.19000
C2181       C  0.10839876  0.68681403  0.91591098    -0.11300
C2182       C  0.09718245  0.66263011  0.90983923     0.21300
C2183       C  0.07445147  0.61526404  0.91000885    -0.20700
C2184       C  0.06152258  0.59234901  0.91613601    -0.11500
C2185       C  0.10908912  0.68635970  0.90330194    -0.15700
C2186       C  0.10439062  0.72259954  0.90221964    -0.29500
C2187       C  0.06024635  0.59345481  0.92877252    -0.03800
C2188       C  0.02050283  0.55582914  0.92991334    -0.40300
H2189       H  0.10572569  0.68326726  0.92664838     0.12400
H2190       H  0.12683258  0.72339765  0.91592667     0.12100
H2191       H  0.06596018  0.59601559  0.90538959     0.11500
H2192       H  0.04381539  0.55577641  0.91613943     0.11800
H2193       H  0.11905473  0.67222490  0.89921394     0.14500
H2194       H  0.09062877  0.73411912  0.90615612     0.13300
H2195       H  0.08364676  0.60956296  0.93291250     0.10900
H2196       H  0.99528260  0.54172754  0.92595838     0.13000
C2197       C  0.17972733  0.83620163  0.82734238     0.19000
C2198       C  0.15598702  0.85145398  0.83131116    -0.19000
C2199       C  0.15847916  0.85173727  0.83832048    -0.11300
C2200       C  0.18487614  0.83657184  0.84158344     0.21300
C2201       C  0.20879401  0.82147532  0.83761532    -0.20700
C2202       C  0.20631116  0.82121738  0.83059064    -0.11500
C2203       C  0.18795723  0.83461069  0.84904944    -0.15700
C2204       C  0.16467054  0.84430715  0.85361578    -0.29500
C2205       C  0.17624874  0.83824412  0.81989378    -0.03800
C2206       C  0.19767958  0.82714017  0.81518205    -0.40300
H2207       H  0.13537595  0.86350328  0.82897050     0.12400
H2208       H  0.13963243  0.86386771  0.84110673     0.12100
H2209       H  0.22944750  0.80952585  0.83996771     0.11500
H2210       H  0.22528681  0.80936677  0.82776990     0.11800
H2211       H  0.20979089  0.82234655  0.85089367     0.14500
H2212       H  0.14204811  0.85619339  0.85206804     0.13300
H2213       H  0.15526207  0.85184177  0.81818291     0.10900
H2214       H  0.21910512  0.81348280  0.81657912     0.13000
C2215       C  0.49825481  0.87638955  0.78515869     0.19000
C2216       C  0.48468066  0.89020499  0.77941923    -0.19000
C2217       C  0.44613082  0.89432782  0.77947636    -0.11300
C2218       C  0.41969363  0.88455877  0.78526673     0.21300
C2219       C  0.43420147  0.87260148  0.79114217    -0.20700
C2220       C  0.47311086  0.86856717  0.79108876    -0.11500
C2221       C  0.37529665  0.88261453  0.78461126    -0.15700
C2222       C  0.34590602  0.87499029  0.78962378    -0.29500
C2223       C  0.53609900  0.86681231  0.78446684    -0.03800
C2224       C  0.55789346  0.86018746  0.78959077    -0.40300
H2225       H  0.50323529  0.89651522  0.77478087     0.12400
H2226       H  0.43598682  0.90359099  0.77486907     0.12100
H2227       H  0.41478481  0.86436742  0.79570472     0.11500
H2228       H  0.48193083  0.85729630  0.79560958     0.11800
H2229       H  0.36502166  0.88492366  0.77953425     0.14500
H2230       H  0.35508230  0.87385716  0.79479388     0.13300
H2231       H  0.54605019  0.86434631  0.77938684     0.10900
H2232       H  0.55025158  0.86421427  0.79472771     0.13000
C2233       C  0.91631946  0.83571972  0.79165339     0.19000
C2234       C  0.95636824  0.87501482  0.78998687    -0.19000
C2235       C  0.99682921  0.87470218  0.78966182    -0.11300
C2236       C  0.99813503  0.83519880  0.79117090     0.21300
C2237       C  0.95788964  0.79556972  0.79275241    -0.20700
C2238       C  0.91699216  0.79559310  0.79289244    -0.11500
C2239       C  0.04192002  0.83711975  0.79207686    -0.15700
C2240       C  0.07814841  0.86439463  0.78837447    -0.29500
C2241       C  0.87564607  0.83915349  0.79278224    -0.03800
C2242       C  0.83455168  0.80862318  0.79051944    -0.40300
H2243       H  0.95649045  0.90636438  0.78910127     0.12400
H2244       H  0.02746115  0.90614161  0.78863334     0.12100
H2245       H  0.95835050  0.76502590  0.79405371     0.11500
H2246       H  0.88647368  0.76510791  0.79431863     0.11800
H2247       H  0.04532870  0.81872717  0.79626941     0.14500
H2248       H  0.07428237  0.88038095  0.78391179     0.13300
H2249       H  0.88042217  0.86975900  0.79520905     0.10900
H2250       H  0.82999116  0.78002529  0.78753426     0.13000
C2251       C  0.65824036  0.93630449  0.91295724     0.19000
C2252       C  0.66756932  0.93256414  0.91968891    -0.19000
C2253       C  0.65171841  0.94933197  0.92474041    -0.11300
C2254       C  0.62741423  0.97121349  0.92310506     0.21300
C2255       C  0.62036131  0.97727861  0.91636248    -0.20700
C2256       C  0.63516073  0.95944500  0.91131613    -0.11500
C2257       C  0.60784031  0.98626222  0.92840573    -0.15700
C2258       C  0.58411375  0.95815351  0.93338428    -0.29500
C2259       C  0.67247622  0.91570250  0.90768862    -0.03800
C2260       C  0.64450155  0.89193468  0.90265671    -0.40300
H2261       H  0.68579725  0.91535528  0.92104011     0.12400
H2262       H  0.65815624  0.94500201  0.92992788     0.12100
H2263       H  0.60202439  0.99438343  0.91501572     0.11500
H2264       H  0.62852548  0.96362671  0.90613272     0.11800
H2265       H  0.61048359  0.01920818  0.92799401     0.14500
H2266       H  0.57884460  0.92401226  0.93340434     0.13300
H2267       H  0.70550947  0.91867348  0.90809019     0.10900
H2268       H  0.61045722  0.88668526  0.90257025     0.13000
C2269       C  0.36038423  0.83371056  0.87807767     0.19000
C2270       C  0.40032133  0.87361150  0.87646806    -0.19000
C2271       C  0.44185316  0.87485533  0.87666222    -0.11300
C2272       C  0.44351965  0.83568737  0.87826956     0.21300
C2273       C  0.40381310  0.79627780  0.88001986    -0.20700
C2274       C  0.36269585  0.79538159  0.88001183    -0.11500
C2275       C  0.48469579  0.83287916  0.87730176    -0.15700
C2276       C  0.52580260  0.86468482  0.87937137    -0.29500
C2277       C  0.31611605  0.83005332  0.87678140    -0.03800
C2278       C  0.27953290  0.80330815  0.88045943    -0.40300
H2279       H  0.39914928  0.90329111  0.87486276     0.12400
H2280       H  0.47209780  0.90539342  0.87516882     0.12100
H2281       H  0.40445120  0.76563207  0.88118759     0.11500
H2282       H  0.33239589  0.76376556  0.88109489     0.11800
H2283       H  0.48044934  0.80193693  0.87506710     0.14500
H2284       H  0.53015520  0.89383750  0.88218479     0.13300
H2285       H  0.31288565  0.84710094  0.87239571     0.10900
H2286       H  0.28314522  0.78895639  0.88511948     0.13000
C2287       C  0.93673117  0.78357676  0.88291888     0.19000
C2288       C  0.92381804  0.79904378  0.87725504    -0.19000
C2289       C  0.88493385  0.80297482  0.87740854    -0.11300
C2290       C  0.85821946  0.79150138  0.88323194     0.21300
C2291       C  0.87010199  0.77398524  0.88872651    -0.20700
C2292       C  0.90873987  0.77007111  0.88857188    -0.11500
C2293       C  0.82053077  0.80102557  0.88411558    -0.15700
C2294       C  0.80188207  0.81325488  0.87918113    -0.29500
C2295       C  0.98130169  0.78617755  0.88356396    -0.03800
C2296       C  0.01095256  0.79487743  0.87855570    -0.40300
H2297       H  0.94465599  0.81037604  0.87282751     0.12400
H2298       H  0.87748857  0.81708875  0.87307554     0.12100
H2299       H  0.85028971  0.76479783  0.89327483     0.11500
H2300       H  0.91777274  0.75810634  0.89301627     0.11800
H2301       H  0.80833505  0.79906824  0.88919679     0.14500
H2302       H  0.81172352  0.81382510  0.87400978     0.13300
H2303       H  0.99134934  0.78320824  0.88862759     0.10900
H2304       H  0.00176300  0.79598068  0.87338353     0.13000
C2305       C  0.68778136  0.85224737  0.82767129     0.19000
C2306       C  0.72542541  0.87262543  0.83197267    -0.19000
C2307       C  0.72064555  0.86574138  0.83889705    -0.11300
C2308       C  0.67779866  0.83823868  0.84169150     0.21300
C2309       C  0.64013700  0.81820158  0.83739692    -0.20700
C2310       C  0.64490704  0.82508136  0.83047940    -0.11500
C2311       C  0.66992687  0.82994306  0.84900722    -0.15700
C2312       C  0.70144276  0.84899542  0.85388543    -0.29500
C2313       C  0.69565123  0.85887733  0.82032599    -0.03800
C2314       C  0.66385416  0.83899128  0.81550080    -0.40300
H2315       H  0.75893233  0.89365452  0.82995809     0.12400
H2316       H  0.75065611  0.88191251  0.84197170     0.12100
H2317       H  0.60663619  0.79702283  0.83940505     0.11500
H2318       H  0.61485671  0.80873105  0.82741819     0.11800
H2319       H  0.63507589  0.80788194  0.85047304     0.14500
H2320       H  0.73661862  0.87153803  0.85272607     0.13300
H2321       H  0.73059078  0.87965668  0.81880369     0.10900
H2322       H  0.62856726  0.81779398  0.81672470     0.13000
C2323       C  0.19445325  0.16847596  0.79233126     0.19000
C2324       C  0.23005353  0.16551439  0.79532990    -0.19000
C2325       C  0.23067560  0.12482203  0.79521182    -0.11300
C2326       C  0.19487888  0.08607257  0.79227179     0.21300
C2327       C  0.15946539  0.08906935  0.78924218    -0.20700
C2328       C  0.15947483  0.12998580  0.78918876    -0.11500
C2329       C  0.19128948  0.04125293  0.79291993    -0.15700
C2330       C  0.22612728  0.03422717  0.79195010    -0.29500
C2331       C  0.19116108  0.20979630  0.79330333    -0.03800
C2332       C  0.17163744  0.22403558  0.78879583    -0.40300
H2333       H  0.25689194  0.19448253  0.79789193     0.12400
H2334       H  0.25788095  0.12304258  0.79770675     0.12100
H2335       H  0.13126784  0.05940141  0.78702904     0.11500
H2336       H  0.13086456  0.13076355  0.78701280     0.11800
H2337       H  0.15811373  0.01251127  0.79393433     0.14500
H2338       H  0.25836962  0.06157615  0.79024426     0.13300
H2339       H  0.20294150  0.22748699  0.79805715     0.10900
H2340       H  0.16221230  0.20816548  0.78388781     0.13000
C2341       C  0.15609901  0.54904979  0.78863736     0.19000
C2342       C  0.14028519  0.56755740  0.78378559    -0.19000
C2343       C  0.14256121  0.60910012  0.78487044    -0.11300
C2344       C  0.16166921  0.63380002  0.79080845     0.21300
C2345       C  0.17513552  0.61417643  0.79582283    -0.20700
C2346       C  0.17268466  0.57240314  0.79474878    -0.11500
C2347       C  0.17047751  0.68099587  0.79169579    -0.15700
C2348       C  0.18038098  0.70883942  0.78641941    -0.29500
C2349       C  0.15901377  0.50817312  0.78683560    -0.03800
C2350       C  0.16385932  0.48130859  0.79131052    -0.40300
H2351       H  0.12705801  0.55028626  0.77905544     0.12400
H2352       H  0.13008002  0.62212575  0.78098241     0.12100
H2353       H  0.18968620  0.63224883  0.80045538     0.11500
H2354       H  0.18592648  0.55985362  0.79858733     0.11800
H2355       H  0.17291187  0.69413669  0.79673188     0.14500
H2356       H  0.18106882  0.69617695  0.78145481     0.13300
H2357       H  0.15889479  0.50099248  0.78152585     0.10900
H2358       H  0.16227811  0.48664020  0.79663824     0.13000
C2359       C  0.40211621  0.54425730  0.78567312     0.19000
C2360       C  0.42737514  0.55901777  0.77976627    -0.19000
C2361       C  0.47028226  0.59700503  0.77977337    -0.11300
C2362       C  0.48917842  0.62169150  0.78567775     0.21300
C2363       C  0.46469484  0.60614089  0.79169316    -0.20700
C2364       C  0.42148479  0.56764684  0.79168990    -0.11500
C2365       C  0.53176686  0.66566771  0.78502874    -0.15700
C2366       C  0.55588607  0.69345362  0.79010181    -0.29500
C2367       C  0.35456886  0.50717386  0.78509407    -0.03800
C2368       C  0.32856393  0.48185379  0.79019774    -0.40300
H2369       H  0.41332403  0.54177627  0.77505896     0.12400
H2370       H  0.48812967  0.60812180  0.77506077     0.12100
H2371       H  0.47766923  0.62444296  0.79634062     0.11500
H2372       H  0.40270789  0.55773684  0.79632331     0.11800
H2373       H  0.54247073  0.67712448  0.77992993     0.14500
H2374       H  0.54773461  0.68301295  0.79527876     0.13300
H2375       H  0.34017788  0.50027796  0.78007449     0.10900
H2376       H  0.34233058  0.48607559  0.79522201     0.13000
C2377       C  0.95041540  0.12157035  0.78821535     0.19000
C2378       C  0.94585520  0.08161693  0.78553866    -0.19000
C2379       C  0.90587763  0.04074680  0.78637673    -0.11300
C2380       C  0.87002697  0.03906762  0.79003982     0.21300
C2381       C  0.87424296  0.07926655  0.79258735    -0.20700
C2382       C  0.91396025  0.12039378  0.79160971    -0.11500
C2383       C  0.83070362  0.99526210  0.79194622    -0.15700
C2384       C  0.81476325  0.95866834  0.78798323    -0.29500
C2385       C  0.99550162  0.16214468  0.78841556    -0.03800
C2386       C  0.00259083  0.20432829  0.78790360    -0.40300
H2387       H  0.97393485  0.08179913  0.78301983     0.12400
H2388       H  0.90425536  0.01019601  0.78452003     0.12100
H2389       H  0.84732270  0.07860071  0.79551279     0.11500
H2390       H  0.91720739  0.15067922  0.79387998     0.11800
H2391       H  0.81609162  0.99260407  0.79686880     0.14500
H2392       H  0.82741664  0.96191314  0.78290869     0.13300
H2393       H  0.02405398  0.15706024  0.78927927     0.10900
H2394       H  0.97549938  0.21049167  0.78647266     0.13000
C2395       C  0.33516722  0.37276265  0.92590030     0.19000
C2396       C  0.30702966  0.38919510  0.92373129    -0.19000
C2397       C  0.28030216  0.37159994  0.91798923    -0.11300
C2398       C  0.28095841  0.33687437  0.91428376     0.21300
C2399       C  0.30705861  0.31859701  0.91665696    -0.20700
C2400       C  0.33403182  0.33637577  0.92239060    -0.11500
C2401       C  0.25545751  0.31980772  0.90788556    -0.15700
C2402       C  0.24883256  0.34694685  0.90372638    -0.29500
C2403       C  0.36446636  0.39406643  0.93188038    -0.03800
C2404       C  0.40181196  0.39169984  0.93321489    -0.40300
H2405       H  0.30632578  0.41637749  0.92642349     0.12400
H2406       H  0.25918681  0.38530179  0.91646605     0.12100
H2407       H  0.30743361  0.29121701  0.91397353     0.11500
H2408       H  0.35364718  0.32132121  0.92404600     0.11800
H2409       H  0.24507425  0.28547891  0.90632915     0.14500
H2410       H  0.26223819  0.38221618  0.90505101     0.13300
H2411       H  0.35558796  0.41355686  0.93521506     0.10900
H2412       H  0.41203658  0.37342604  0.92987589     0.13000
C2413       C  0.19574909  0.34029271  0.82737011     0.19000
C2414       C  0.18062701  0.30083682  0.83120081    -0.19000
C2415       C  0.18015622  0.30232918  0.83818650    -0.11300
C2416       C  0.19492768  0.34362086  0.84152948     0.21300
C2417       C  0.21136977  0.38329207  0.83770333    -0.20700
C2418       C  0.21173261  0.38177198  0.83070142    -0.11500
C2419       C  0.19415728  0.34744208  0.84894715    -0.15700
C2420       C  0.17706581  0.31250034  0.85328332    -0.29500
C2421       C  0.19090573  0.33526550  0.81997784    -0.03800
C2422       C  0.20110284  0.36862164  0.81548449    -0.40300
H2423       H  0.16817960  0.26834889  0.82877147     0.12400
H2424       H  0.16789089  0.27094447  0.84087024     0.12100
H2425       H  0.22339184  0.41567275  0.84014275     0.11500
H2426       H  0.22373450  0.41298946  0.82797486     0.11800
H2427       H  0.20911560  0.38150662  0.85096619     0.14500
H2428       H  0.16237344  0.27788510  0.85157769     0.13300
H2429       H  0.17526346  0.30070101  0.81814159     0.10900
H2430       H  0.21824625  0.40387218  0.81695481     0.13000
C2431       C  0.96269548  0.12056275  0.87987623     0.19000
C2432       C  0.93514695  0.09727948  0.88532398    -0.19000
C2433       C  0.89306062  0.05907090  0.88433848    -0.11300
C2434       C  0.87685716  0.04318321  0.87782832     0.21300
C2435       C  0.90403783  0.06667859  0.87234476    -0.20700
C2436       C  0.94648437  0.10513019  0.87333562    -0.11500
C2437       C  0.83426090  0.99965187  0.87673313    -0.15700
C2438       C  0.80164138  0.98221794  0.88137516    -0.29500
C2439       C  0.00864288  0.15879467  0.88139585    -0.03800
C2440       C  0.03886191  0.18550698  0.87679945    -0.40300
H2441       H  0.94677577  0.10792121  0.89041291     0.12400
H2442       H  0.87447546  0.04109760  0.88874187     0.12100
H2443       H  0.89274256  0.05475832  0.86728773     0.11500
H2444       H  0.96651671  0.12156124  0.86896635     0.11800
H2445       H  0.83172730  0.97960234  0.87234902     0.14500
H2446       H  0.80369387  0.00197693  0.88575461     0.13300
H2447       H  0.01842833  0.16471480  0.88664927     0.10900
H2448       H  0.03037624  0.18153889  0.87151560     0.13000
C2449       C  0.42598429  0.54643257  0.87652971     0.19000
C2450       C  0.43834004  0.57266791  0.88241888    -0.19000
C2451       C  0.47697703  0.61572946  0.88253187    -0.11300
C2452       C  0.50375192  0.63313742  0.87674596     0.21300
C2453       C  0.49253455  0.60557375  0.87103845    -0.20700
C2454       C  0.45402850  0.56301203  0.87091442    -0.11500
C2455       C  0.54114606  0.68061073  0.87609562    -0.15700
C2456       C  0.54997977  0.71424531  0.88043593    -0.29500
C2457       C  0.38207824  0.50426421  0.87569247    -0.03800
C2458       C  0.35620215  0.47755802  0.88069888    -0.40300
H2459       H  0.41720974  0.56111325  0.88682123     0.12400
H2460       H  0.48471702  0.63542935  0.88708085     0.12100
H2461       H  0.51250778  0.61782590  0.86652044     0.11500
H2462       H  0.44530646  0.54351534  0.86631488     0.11800
H2463       H  0.55982287  0.68928505  0.87141883     0.14500
H2464       H  0.53284611  0.70752097  0.88521013     0.13300
H2465       H  0.37025237  0.49485060  0.87056127     0.10900
H2466       H  0.36803497  0.48412768  0.88585041     0.13000
C2467       C  0.19675722  0.03634233  0.87802894     0.19000
C2468       C  0.18658434  0.05797542  0.87288754    -0.19000
C2469       C  0.19098220  0.10067565  0.87394314    -0.11300
C2470       C  0.20591021  0.12268742  0.88017740     0.21300
C2471       C  0.21829015  0.10210148  0.88517496    -0.20700
C2472       C  0.21449207  0.05992064  0.88409585    -0.11500
C2473       C  0.20378015  0.16392402  0.88196802    -0.15700
C2474       C  0.20539782  0.19438558  0.87751741    -0.29500
C2475       C  0.18659492  0.98863838  0.87708928    -0.03800
C2476       C  0.17703280  0.96058025  0.88234063    -0.40300
H2477       H  0.17329148  0.04094422  0.86814603     0.12400
H2478       H  0.18041737  0.11513154  0.87000182     0.12100
H2479       H  0.23011786  0.11835279  0.89000632     0.11500
H2480       H  0.22490648  0.04574648  0.88809348     0.11800
H2481       H  0.19872914  0.16823339  0.88723262     0.14500
H2482       H  0.21247898  0.19192747  0.87228395     0.13300
H2483       H  0.18364391  0.97556627  0.87203661     0.10900
H2484       H  0.17698158  0.97305993  0.88733824     0.13000
C2485       C  0.12375147  0.56532486  0.88018376     0.19000
C2486       C  0.14454450  0.55420810  0.88533086    -0.19000
C2487       C  0.15400703  0.51900705  0.88447883    -0.11300
C2488       C  0.14224087  0.49388708  0.87846645     0.21300
C2489       C  0.11822740  0.50281425  0.87357072    -0.20700
C2490       C  0.10872786  0.53778507  0.87443103    -0.11500
C2491       C  0.15843896  0.46193880  0.87674020    -0.15700
C2492       C  0.17457149  0.44385478  0.88119335    -0.29500
C2493       C  0.12207809  0.60804469  0.88061933    -0.03800
C2494       C  0.12765748  0.63310865  0.87511595    -0.40300
H2495       H  0.15603820  0.57458212  0.88984275     0.12400
H2496       H  0.17278507  0.51356083  0.88837279     0.12100
H2497       H  0.10819868  0.48370632  0.86893342     0.11500
H2498       H  0.09096777  0.54416960  0.87047089     0.11800
H2499       H  0.15838226  0.45410169  0.87145810     0.14500
H2500       H  0.17302060  0.44908465  0.88652434     0.13300
H2501       H  0.12224661  0.62185848  0.88553346     0.10900
H2502       H  0.13175119  0.62101528  0.87028236     0.13000
C2503       C  0.27349779  0.97163205  0.75483465     0.19000
C2504       C  0.31265412  0.98482101  0.75107927    -0.19000
C2505       C  0.32180334  0.01208193  0.74541577    -0.11300
C2506       C  0.29164436  0.02648071  0.74335355     0.21300
C2507       C  0.25136175  0.01138741  0.74691176    -0.20700
C2508       C  0.24238084  0.98440432  0.75261295    -0.11500
C2509       C  0.30086186  0.05653377  0.73747040    -0.15700
C2510       C  0.34290550  0.08634453  0.73545040    -0.29500
C2511       C  0.26614533  0.94442529  0.76099982    -0.03800
C2512       C  0.24278589  0.94627970  0.76627544    -0.40300
H2513       H  0.33667610  0.97464901  0.75260293     0.12400
H2514       H  0.35231412  0.02142216  0.74264434     0.12100
H2515       H  0.22710662  0.02113687  0.74533992     0.11500
H2516       H  0.21096874  0.97339826  0.75522891     0.11800
H2517       H  0.27225366  0.05534833  0.73489930     0.14500
H2518       H  0.37178176  0.08949047  0.73818786     0.13300
H2519       H  0.28260724  0.92431871  0.76135381     0.10900
H2520       H  0.22815447  0.96806676  0.76610888     0.13000
C2521       C  0.34891352  0.20430684  0.67583128     0.19000
C2522       C  0.30998632  0.19178087  0.67196098    -0.19000
C2523       C  0.31156199  0.19230145  0.66495900    -0.11300
C2524       C  0.35236784  0.20534713  0.66164150     0.21300
C2525       C  0.39138514  0.21819629  0.66551012    -0.20700
C2526       C  0.38980468  0.21765611  0.67251458    -0.11500
C2527       C  0.35673410  0.20744187  0.65421294    -0.15700
C2528       C  0.32287049  0.19532169  0.64972108    -0.29500
C2529       C  0.34411204  0.20050918  0.68325173    -0.03800
C2530       C  0.37785954  0.21244681  0.68775279    -0.40300
H2531       H  0.27793368  0.18120540  0.67437159     0.12400
H2532       H  0.28074516  0.18254725  0.66222800     0.12100
H2533       H  0.42339844  0.22859447  0.66309785     0.11500
H2534       H  0.42056155  0.22716519  0.67524874     0.11800
H2535       H  0.39085278  0.22117462  0.65232964     0.14500
H2536       H  0.28823816  0.18165095  0.65130044     0.13300
H2537       H  0.30977710  0.18516795  0.68510753     0.10900
H2538       H  0.41273578  0.22811350  0.68619338     0.13000
C2539       C  0.39528993  0.41397890  0.58083979     0.19000
C2540       C  0.41794845  0.39157779  0.58310268    -0.19000
C2541       C  0.40144206  0.36179432  0.58850117    -0.11300
C2542       C  0.36206836  0.35373027  0.59186046     0.21300
C2543       C  0.33898481  0.37547053  0.58957634    -0.20700
C2544       C  0.35554002  0.40542638  0.58414920    -0.11500
C2545       C  0.34434305  0.32210792  0.59764565    -0.15700
C2546       C  0.37194108  0.31555998  0.60172151    -0.29500
C2547       C  0.41072646  0.44494010  0.57493406    -0.03800
C2548       C  0.44800410  0.45557781  0.57131426    -0.40300
H2549       H  0.44812024  0.39599911  0.58072495     0.12400
H2550       H  0.41928344  0.34438280  0.58992838     0.12100
H2551       H  0.30832416  0.36955380  0.59202682     0.11500
H2552       H  0.33703920  0.42178603  0.58250649     0.11800
H2553       H  0.30843598  0.30514970  0.59868994     0.14500
H2554       H  0.40813654  0.33521894  0.60098553     0.13300
H2555       H  0.38940574  0.45846883  0.57335395     0.10900
H2556       H  0.47016205  0.44275723  0.57264982     0.13000
C2557       C  0.54267033  0.40713689  0.71063947     0.19000
C2558       C  0.57535263  0.42651078  0.70557974    -0.19000
C2559       C  0.61338456  0.46968237  0.70642102    -0.11300
C2560       C  0.61928931  0.49457886  0.71234291     0.21300
C2561       C  0.58515961  0.47632083  0.71719234    -0.20700
C2562       C  0.54716655  0.43349997  0.71633344    -0.11500
C2563       C  0.66250661  0.53644004  0.71406420    -0.15700
C2564       C  0.69346314  0.56418546  0.70958244    -0.29500
C2565       C  0.50589925  0.35877250  0.71005898    -0.03800
C2566       C  0.48814665  0.33257124  0.71551976    -0.40300
H2567       H  0.57263532  0.40728524  0.70111121     0.12400
H2568       H  0.63913049  0.48223068  0.70259836     0.12100
H2569       H  0.58852357  0.49477895  0.72177610     0.11500
H2570       H  0.52188821  0.42082749  0.72022562     0.11800
H2571       H  0.66992813  0.54362000  0.71937013     0.14500
H2572       H  0.68599474  0.55912744  0.70425829     0.13300
H2573       H  0.49640948  0.34348685  0.70511336     0.10900
H2574       H  0.50039338  0.34726889  0.72043860     0.13000
C2575       C  0.13797253  0.93795457  0.70772428     0.19000
C2576       C  0.11409945  0.92386263  0.71380292    -0.19000
C2577       C  0.06997870  0.88662958  0.71394405    -0.11300
C2578       C  0.04913964  0.86275200  0.70800417     0.21300
C2579       C  0.07424036  0.87570707  0.70205195    -0.20700
C2580       C  0.11777032  0.91290227  0.70190414    -0.11500
C2581       C  0.00055314  0.82721649  0.70747682    -0.15700
C2582       C  0.96997415  0.81281915  0.71247366    -0.29500
C2583       C  0.18118340  0.98131151  0.70700242    -0.03800
C2584       C  0.21177938  0.00224685  0.71192202    -0.40300
H2585       H  0.12840176  0.94288812  0.71836866     0.12400
H2586       H  0.05207127  0.87797049  0.71864742     0.12100
H2587       H  0.05939413  0.85812814  0.69739534     0.11500
H2588       H  0.13526227  0.92302608  0.69715344     0.11800
H2589       H  0.98844836  0.81444706  0.70245679     0.14500
H2590       H  0.98024564  0.82375369  0.71759618     0.13300
H2591       H  0.18786087  0.99706543  0.70208971     0.10900
H2592       H  0.20738805  0.98612548  0.71676499     0.13000
C2593       C  0.70981827  0.74021114  0.75619644     0.19000
C2594       C  0.68309171  0.69725740  0.75334697    -0.19000
C2595       C  0.69902521  0.68285913  0.74796526    -0.11300
C2596       C  0.74196599  0.71115590  0.74524239     0.21300
C2597       C  0.76862573  0.75446016  0.74808281    -0.20700
C2598       C  0.75264580  0.76882452  0.75344282    -0.11500
C2599       C  0.75662897  0.69454906  0.73935059    -0.15700
C2600       C  0.79528809  0.71974887  0.73596472    -0.29500
C2601       C  0.69204858  0.75421751  0.76198674    -0.03800
C2602       C  0.71923125  0.78553217  0.76647331    -0.40300
H2603       H  0.64987414  0.67456942  0.75532862     0.12400
H2604       H  0.67750327  0.64946637  0.74589361     0.12100
H2605       H  0.80178847  0.77793382  0.74622754     0.11500
H2606       H  0.77384997  0.80276224  0.75532172     0.11800
H2607       H  0.73346280  0.66070784  0.73751679     0.14500
H2608       H  0.81876984  0.75403284  0.73749613     0.13300
H2609       H  0.65583913  0.73651485  0.76278994     0.10900
H2610       H  0.75551917  0.80117836  0.76597632     0.13000
C2611       C  0.15837541  0.99488365  0.61809771     0.19000
C2612       C  0.14778143  0.96831930  0.61227914    -0.19000
C2613       C  0.11003237  0.92497453  0.61203614    -0.11300
C2614       C  0.08164830  0.90673867  0.61760526     0.21300
C2615       C  0.09318933  0.93241037  0.62355929    -0.20700
C2616       C  0.13113186  0.97599849  0.62380363    -0.11500
C2617       C  0.03795130  0.86382962  0.61664917    -0.15700
C2618       C  0.00957772  0.83894797  0.62159828    -0.29500
C2619       C  0.19535526  0.04304581  0.61771656    -0.03800
C2620       C  0.21365243  0.07113630  0.62300593    -0.40300
H2621       H  0.16798130  0.98174407  0.60780373     0.12400
H2622       H  0.10205389  0.90622200  0.60737307     0.12100
H2623       H  0.07191070  0.92016300  0.62793456     0.11500
H2624       H  0.13746855  0.99531078  0.62836860     0.11800
H2625       H  0.02741588  0.85368235  0.61149206     0.14500
H2626       H  0.01954412  0.84702892  0.62680572     0.13300
H2627       H  0.20759517  0.05633540  0.61273858     0.10900
H2628       H  0.20383920  0.05865066  0.62806869     0.13000
C2629       C  0.57825569  0.44277043  0.62506404     0.19000
C2630       C  0.61432397  0.44369108  0.62161642    -0.19000
C2631       C  0.65653538  0.48297514  0.62151668    -0.11300
C2632       C  0.66361742  0.52165913  0.62503286     0.21300
C2633       C  0.62736390  0.52081762  0.62842746    -0.20700
C2634       C  0.58478975  0.48188992  0.62836594    -0.11500
C2635       C  0.70952639  0.56078112  0.62596807    -0.15700
C2636       C  0.74184382  0.57482577  0.62127008    -0.29500
C2637       C  0.53588343  0.39934192  0.62580648    -0.03800
C2638       C  0.49481698  0.39526174  0.62546557    -0.40300
H2639       H  0.61004116  0.41360270  0.61912505     0.12400
H2640       H  0.68414314  0.48219978  0.61901207     0.12100
H2641       H  0.63231809  0.54999781  0.63126592     0.11500
H2642       H  0.55768583  0.48159616  0.63118908     0.11800
H2643       H  0.71732315  0.57778096  0.63080193     0.14500
H2644       H  0.73372171  0.56044122  0.61625897     0.13300
H2645       H  0.53859533  0.36917784  0.62646665     0.10900
H2646       H  0.49098730  0.42398040  0.62412803     0.13000
C2647       C  0.85490946  0.70825305  0.67348947     0.19000
C2648       C  0.88443874  0.74478536  0.66943561    -0.19000
C2649       C  0.88159503  0.74170034  0.66243392    -0.11300
C2650       C  0.84869627  0.70188468  0.65929425     0.21300
C2651       C  0.81937763  0.66520997  0.66335098    -0.20700
C2652       C  0.82225969  0.66829004  0.67035832    -0.11500
C2653       C  0.84482956  0.69596894  0.65186220    -0.15700
C2654       C  0.86544217  0.72925046  0.64726489    -0.29500
C2655       C  0.85754351  0.71492248  0.68089881    -0.03800
C2656       C  0.83785357  0.68198564  0.68557055    -0.40300
H2657       H  0.90988963  0.77608195  0.67170372     0.12400
H2658       H  0.90554296  0.77043027  0.65954650     0.12100
H2659       H  0.79378837  0.63398916  0.66108338     0.11500
H2660       H  0.79825327  0.63969421  0.67326776     0.11800
H2661       H  0.82391862  0.66150823  0.65007878     0.14500
H2662       H  0.88589391  0.76424369  0.64878821     0.13300
H2663       H  0.87670215  0.74979087  0.68259235     0.10900
H2664       H  0.82012700  0.64664322  0.68412877     0.13000
C2665       C  0.93827650  0.60724001  0.57651667     0.19000
C2666       C  0.90783330  0.62341982  0.57689561    -0.19000
C2667       C  0.89684232  0.63465882  0.58309123    -0.11300
C2668       C  0.91534020  0.62891892  0.58906260     0.21300
C2669       C  0.94481397  0.61160079  0.58870033    -0.20700
C2670       C  0.95660187  0.60132496  0.58249425    -0.11500
C2671       C  0.90388019  0.63996602  0.59572805    -0.15700
C2672       C  0.89928444  0.67641077  0.59672263    -0.29500
C2673       C  0.94863961  0.59494393  0.56986011    -0.03800
C2674       C  0.98888436  0.59908972  0.56833926    -0.40300
H2675       H  0.89276683  0.62768940  0.57237415     0.12400
H2676       H  0.87325514  0.64702398  0.58321798     0.12100
H2677       H  0.95914427  0.60647021  0.59323486     0.11500
H2678       H  0.97923112  0.58781048  0.58239880     0.11800
H2679       H  0.90302970  0.61995350  0.60001638     0.14500
H2680       H  0.90455988  0.69901495  0.59256247     0.13300
H2681       H  0.92298433  0.58429080  0.56597256     0.10900
H2682       H  0.01607348  0.61329611  0.57199813     0.13000
C2683       C  0.84952431  0.93265601  0.71310675     0.19000
C2684       C  0.84810767  0.95896575  0.70783791    -0.19000
C2685       C  0.85668358  0.00275689  0.70897067    -0.11300
C2686       C  0.86697852  0.02172816  0.71544479     0.21300
C2687       C  0.86821375  0.99541439  0.72076696    -0.20700
C2688       C  0.85912970  0.95098604  0.71962970    -0.11500
C2689       C  0.88087200  0.07021884  0.71646082    -0.15700
C2690       C  0.86445169  0.09053418  0.71250591    -0.29500
C2691       C  0.84563170  0.88862317  0.71134180    -0.03800
C2692       C  0.83313777  0.85353214  0.71553786    -0.40300
H2693       H  0.84154251  0.94599486  0.70275442     0.12400
H2694       H  0.85729933  0.02236061  0.70467416     0.12100
H2695       H  0.87694577  0.00951007  0.72577275     0.11500
H2696       H  0.86158625  0.93196106  0.72378158     0.11800
H2697       H  0.90816187  0.09017944  0.71994561     0.14500
H2698       H  0.83682119  0.07002298  0.70910474     0.13300
H2699       H  0.85313904  0.88485652  0.70616993     0.10900
H2700       H  0.82291777  0.85503414  0.72063142     0.13000
C2701       C  0.88908964  0.42946085  0.71534596     0.19000
C2702       C  0.87402976  0.44066909  0.70945549    -0.19000
C2703       C  0.86884823  0.47893069  0.70928226    -0.11300
C2704       C  0.87860013  0.50653425  0.71499647     0.21300
C2705       C  0.89575102  0.49641822  0.72071937    -0.20700
C2706       C  0.90099293  0.45852435  0.72088764    -0.11500
C2707       C  0.86721733  0.54309535  0.71556566    -0.15700
C2708       C  0.85773220  0.56270665  0.71043138    -0.29500
C2709       C  0.88779494  0.38564052  0.71631927    -0.03800
C2710       C  0.88083188  0.35531877  0.71146860    -0.40300
H2711       H  0.86394807  0.41895477  0.70509662     0.12400
H2712       H  0.85501160  0.48524590  0.70480430     0.12100
H2713       H  0.90360029  0.51703546  0.72519341     0.11500
H2714       H  0.91265340  0.45086360  0.72549203     0.11800
H2715       H  0.86615393  0.55426903  0.72063060     0.14500
H2716       H  0.86092418  0.55461361  0.70527841     0.13300
H2717       H  0.89051226  0.37684268  0.72146887     0.10900
H2718       H  0.88011609  0.36337304  0.70623150     0.13000
C2719       C  0.09840715  0.20263785  0.71324977     0.19000
C2720       C  0.09910816  0.16390464  0.71539685    -0.19000
C2721       C  0.13950830  0.16306431  0.71557011    -0.11300
C2722       C  0.17988977  0.20072398  0.71343498     0.21300
C2723       C  0.17937132  0.23984231  0.71142625    -0.20700
C2724       C  0.13909396  0.24106992  0.71141582    -0.11500
C2725       C  0.22069630  0.19718119  0.71220789    -0.15700
C2726       C  0.23185481  0.17116691  0.71588904    -0.29500
C2727       C  0.05433898  0.20012870  0.71221183    -0.03800
C2728       C  0.04748804  0.23518534  0.71317985    -0.40300
H2729       H  0.06804566  0.13373453  0.71675147     0.12400
H2730       H  0.13852875  0.13195999  0.71695829     0.12100
H2731       H  0.20992349  0.26894082  0.70964083     0.11500
H2732       H  0.13938276  0.27106221  0.70959689     0.11800
H2733       H  0.24050332  0.21422155  0.70780124     0.14500
H2734       H  0.21449092  0.15649604  0.72055959     0.13300
H2735       H  0.02607618  0.16768456  0.71069733     0.10900
H2736       H  0.07403986  0.26664688  0.71528692     0.13000
C2737       C  0.56370374  0.16382863  0.71245821     0.19000
C2738       C  0.57885765  0.14022137  0.71644035    -0.19000
C2739       C  0.62055704  0.14338766  0.71522007    -0.11300
C2740       C  0.64883997  0.17139704  0.71008094     0.21300
C2741       C  0.63258294  0.19302078  0.70585869    -0.20700
C2742       C  0.59051193  0.18943097  0.70703699    -0.11500
C2743       C  0.69642763  0.18136222  0.70936255    -0.15700
C2744       C  0.72068713  0.18209156  0.71473306    -0.29500
C2745       C  0.52268786  0.16517368  0.71456365    -0.03800
C2746       C  0.49599463  0.17211170  0.71033017    -0.40300
H2747       H  0.55877693  0.12003570  0.72061772     0.12400
H2748       H  0.63095058  0.12467648  0.71842487     0.12100
H2749       H  0.65346643  0.21462739  0.70184987     0.11500
H2750       H  0.58028007  0.20870919  0.70392834     0.11800
H2751       H  0.71322831  0.19348982  0.70457653     0.14500
H2752       H  0.70475589  0.17396140  0.71962060     0.13300
H2753       H  0.51476426  0.16116630  0.71987769     0.10900
H2754       H  0.50172206  0.17333575  0.70496690     0.13000
C2755       C  0.02909579  0.29037891  0.74231472     0.19000
C2756       C  0.04325256  0.26471331  0.74597207    -0.19000
C2757       C  0.07080173  0.28299109  0.75161084    -0.11300
C2758       C  0.08487607  0.32754355  0.75369165     0.21300
C2759       C  0.07312938  0.35414990  0.74976671    -0.20700
C2760       C  0.04533796  0.33574977  0.74414069    -0.11500
C2761       C  0.11085750  0.34665506  0.75999106    -0.15700
C2762       C  0.10640056  0.32026451  0.76525224    -0.29500
C2763       C  0.99739375  0.26896915  0.73663639    -0.03800
C2764       C  0.96600944  0.28009326  0.73506424    -0.40300
H2765       H  0.03201755  0.23004505  0.74456324     0.12400
H2766       H  0.08086636  0.26203469  0.75432309     0.12100
H2767       H  0.08439101  0.38883079  0.75116781     0.11500
H2768       H  0.03650507  0.35701332  0.74124692     0.11800
H2769       H  0.13176649  0.38310321  0.76045716     0.14500
H2770       H  0.08356013  0.28407853  0.76492808     0.13300
H2771       H  0.99840936  0.24192548  0.73391564     0.10900
H2772       H  0.96338321  0.30546862  0.73799507     0.13000
C2773       C  0.52527635  0.20182660  0.62328426     0.19000
C2774       C  0.52778483  0.16337815  0.62505244    -0.19000
C2775       C  0.56799669  0.16261761  0.62421494    -0.11300
C2776       C  0.60660630  0.20089718  0.62177256     0.21300
C2777       C  0.60392274  0.23903998  0.61992589    -0.20700
C2778       C  0.56353277  0.23938221  0.62059238    -0.11500
C2779       C  0.65140180  0.20463839  0.62212615    -0.15700
C2780       C  0.65928824  0.17090602  0.62058872    -0.29500
C2781       C  0.48483453  0.20467749  0.62508772    -0.03800
C2782       C  0.47088788  0.22865312  0.62147539    -0.40300
H2783       H  0.49896668  0.13442944  0.62725468     0.12400
H2784       H  0.56966140  0.13327369  0.62585457     0.12100
H2785       H  0.63360163  0.26919749  0.61816848     0.11500
H2786       H  0.56311801  0.27005647  0.61938086     0.11800
H2787       H  0.67924609  0.23680412  0.62383302     0.14500
H2788       H  0.63314397  0.13981633  0.61833229     0.13300
H2789       H  0.46765629  0.18863446  0.62971588     0.10900
H2790       H  0.48612522  0.24231148  0.61664268     0.13000
C2791       C  0.15080937  0.25185560  0.62074027     0.19000
C2792       C  0.12182278  0.23522094  0.62630084    -0.19000
C2793       C  0.07930349  0.23200748  0.62610252    -0.11300
C2794       C  0.06509770  0.24540881  0.62033782     0.21300
C2795       C  0.09529798  0.26443867  0.61499005    -0.20700
C2796       C  0.13749067  0.26759313  0.61518635    -0.11500
C2797       C  0.01801872  0.23583229  0.61928425    -0.15700
C2798       C  0.98620614  0.22263876  0.62406252    -0.29500
C2799       C  0.19181927  0.24768130  0.62003874    -0.03800
C2800       C  0.21285578  0.23878311  0.62503663    -0.40300
H2801       H  0.13053115  0.22215895  0.63063871     0.12400
H2802       H  0.05700951  0.21672034  0.63031307     0.12100
H2803       H  0.08546159  0.27515857  0.61049383     0.11500
H2804       H  0.15902326  0.28052859  0.61082830     0.11800
H2805       H  0.00864153  0.23850324  0.61416527     0.14500
H2806       H  0.99456333  0.22162876  0.62928154     0.13300
H2807       H  0.20409441  0.24982018  0.61495591     0.10900
H2808       H  0.20364451  0.23898127  0.63022641     0.13000
C2809       C  0.88996125  0.49004550  0.62647593     0.19000
C2810       C  0.87034881  0.46232140  0.62081967    -0.19000
C2811       C  0.85950908  0.41692398  0.62090914    -0.11300
C2812       C  0.86821463  0.39846146  0.62665859     0.21300
C2813       C  0.88910581  0.42678655  0.63219124    -0.20700
C2814       C  0.89967709  0.47185729  0.63210941    -0.11500
C2815       C  0.85292712  0.34949964  0.62741826    -0.15700
C2816       C  0.83593314  0.31846781  0.62246832    -0.29500
C2817       C  0.89493351  0.53562645  0.62711081    -0.03800
C2818       C  0.89659946  0.56185713  0.62194618    -0.40300
H2819       H  0.86113568  0.47477602  0.61645973     0.12400
H2820       H  0.84267177  0.39630584  0.61657615     0.12100
H2821       H  0.89604191  0.41362268  0.63670041     0.11500
H2822       H  0.91426387  0.49226645  0.63656302     0.11800
H2823       H  0.85443131  0.33813381  0.63245082     0.14500
H2824       H  0.83485729  0.32836462  0.61734367     0.13300
H2825       H  0.89484027  0.54711332  0.63219007     0.10900
H2826       H  0.89919403  0.55264826  0.61682914     0.13000
C2827       C  0.84017488  0.90837294  0.61723605     0.19000
C2828       C  0.84187149  0.93058349  0.62327543    -0.19000
C2829       C  0.83740667  0.96934644  0.62322352    -0.11300
C2830       C  0.83113916  0.98643874  0.61713177     0.21300
C2831       C  0.82833156  0.96337046  0.61117622    -0.20700
C2832       C  0.83279835  0.92501626  0.61122701    -0.11500
C2833       C  0.83209001  0.03036478  0.61654267    -0.15700
C2834       C  0.82761764  0.05381878  0.62163258    -0.29500
C2835       C  0.84912662  0.87005648  0.61675984    -0.03800
C2836       C  0.84879085  0.84411803  0.62188528    -0.40300
H2837       H  0.84836311  0.91934415  0.62799763     0.12400
H2838       H  0.84077658  0.98669485  0.62790788     0.12100
H2839       H  0.82382507  0.97578463  0.60640696     0.11500
H2840       H  0.83146490  0.90880947  0.60649529     0.11800
H2841       H  0.83846736  0.04501594  0.61155422     0.14500
H2842       H  0.81974227  0.03976341  0.62664457     0.13300
H2843       H  0.85634971  0.86270090  0.61176385     0.10900
H2844       H  0.84023243  0.84922459  0.62691441     0.13000
C2845       C  0.83313555  0.18971029  0.66067448     0.19000
C2846       C  0.80696068  0.19832319  0.66522288    -0.19000
C2847       C  0.81441598  0.19935951  0.67213181    -0.11300
C2848       C  0.84842759  0.19179562  0.67463574     0.21300
C2849       C  0.87398993  0.18234369  0.67009921    -0.20700
C2850       C  0.86666073  0.18145444  0.66320208    -0.11500
C2851       C  0.85898515  0.19318720  0.68187742    -0.15700
C2852       C  0.84450915  0.20971829  0.68685131    -0.29500
C2853       C  0.82485465  0.19120341  0.65338845    -0.03800
C2854       C  0.84477120  0.18111374  0.64835454    -0.40300
H2855       H  0.78071065  0.20460200  0.66341961     0.12400
H2856       H  0.79342079  0.20592164  0.67544494     0.12100
H2857       H  0.90036564  0.17622690  0.67189549     0.11500
H2858       H  0.88784150  0.17494595  0.65992879     0.11800
H2859       H  0.88198444  0.18103401  0.68313751     0.14500
H2860       H  0.82172103  0.22244447  0.68586102     0.13300
H2861       H  0.80040853  0.20147449  0.65210550     0.10900
H2862       H  0.86836016  0.16940591  0.64934443     0.13000
C2863       C  0.65587143  0.12530958  0.57778334     0.19000
C2864       C  0.70313101  0.14596895  0.57772260    -0.19000
C2865       C  0.72775036  0.15636080  0.58374067    -0.11300
C2866       C  0.70554717  0.14713965  0.58995369     0.21300
C2867       C  0.65845446  0.12768291  0.59000073    -0.20700
C2868       C  0.63382806  0.11650377  0.58400218    -0.11500
C2869       C  0.73031894  0.15901807  0.59646905    -0.15700
C2870       C  0.76867790  0.15790693  0.59753270    -0.29500
C2871       C  0.63030410  0.11371998  0.57132602    -0.03800
C2872       C  0.58939131  0.07657047  0.57063428    -0.40300
H2873       H  0.72098892  0.15358111  0.57300391     0.12400
H2874       H  0.76411695  0.17239750  0.58352036     0.12100
H2875       H  0.64057282  0.12078837  0.59471099     0.11500
H2876       H  0.59758178  0.10168702  0.58424349     0.11800
H2877       H  0.71472219  0.16615652  0.60067486     0.14500
H2878       H  0.78278005  0.14733932  0.59352625     0.13300
H2879       H  0.64678093  0.13417537  0.56694433     0.10900
H2880       H  0.57488680  0.05372215  0.57484977     0.13000
loop_ 
_geom_bond_atom_site_label_1 
_geom_bond_atom_site_label_2 
_geom_bond_distance 
_geom_bond_site_symmetry_2 
_ccdc_geom_bond_type 
O1           Ni7   1.915       .  S
O1           C22   1.270       .  A
O2          Ni25   1.905       .  S
O2           C11   1.267       .  A
O3           Ni7   1.914       .  S
O3          Ni25   1.907       .  S
O3          Ni19   1.919       .  S
O3           H26   0.966       .  S
C4           O21   1.274       .  A
C4           O13   1.277       .  A
C4         C2798   1.483       .  S
O5          Ni24   1.944       .  S
O5           C11   1.274       .  A
O6          Ni24   1.908       .  S
O6            C8   1.272       .  A
Ni7          O10   1.928       .  S
Ni7          O12   1.902       .  S
C8           O18   1.275       .  A
C8         C2834   1.486       .  S
O9          Ni25   1.913       .  S
O9           C15   1.268       .  A
O10          C15   1.272       .  A
C11        C2870   1.485       .  S
O12          C14   1.270       .  A
O13         Ni24   1.927       .  S
C14          O20   1.277       .  A
C14        C2816   1.482       .  S
C15        C2780   1.473       .  S
H16          O17   0.966       .  S
O17         Ni25   1.911       .  S
O17         Ni19   1.916       .  S
O17         Ni24   1.910       .  S
O18         Ni19   1.936       .  S
Ni19         O23   1.916       .  S
Ni19         O21   1.921       .  S
O20         Ni25   1.953       .  S
C22          O23   1.271       .  A
C22        C2854   1.481       .  S
O27         Ni33   1.931       .  S
O27          C48   1.271       .  A
O28         Ni51   1.922       .  S
O28          C37   1.274       .  A
O29         Ni33   1.897       .  S
O29         Ni51   1.905       .  S
O29         Ni45   1.897       .  S
O29          H52   0.966       .  S
C30          O47   1.263   1_455  A
C30          O39   1.272   1_455  A
C30        C2728   1.476       .  S
O31         Ni50   1.906       .  S
O31          C37   1.271       .  A
O32         Ni50   1.891       .  S
O32          C34   1.267       .  A
Ni33         O36   1.914       .  S
Ni33         O38   1.904       .  S
C34          O44   1.283       .  A
C34        C2690   1.472       .  S
O35         Ni51   1.946       .  S
O35          C41   1.284       .  A
O36          C41   1.276       .  A
C37        C2852   1.483       .  S
O38          C40   1.270       .  A
O39         Ni50   1.941       .  S
C40          O46   1.272       .  A
C40        C2710   1.483       .  S
C41        C2744   1.480       .  S
H42          O43   0.966       .  S
O43         Ni51   1.942       .  S
O43         Ni45   1.906       .  S
O43         Ni50   1.907       .  S
O44         Ni45   1.972       .  S
Ni45         O49   1.900       .  S
Ni45         O47   1.908       .  S
O46         Ni51   1.932       .  S
C48          O49   1.267       .  A
C48        C2764   1.472       .  S
O53         Ni59   1.916       .  S
O53          C74   1.266       .  A
O54         Ni77   1.911       .  S
O54          C63   1.269       .  A
O55         Ni59   1.912       .  S
O55         Ni77   1.911       .  S
O55         Ni71   1.914       .  S
O55          H78   0.966       .  S
C56          O73   1.274       .  A
C56          O65   1.275       .  A
C56        C2836   1.487       .  S
O57         Ni76   1.933       .  S
O57          C63   1.272       .  A
O58         Ni76   1.908       .  S
O58          C60   1.272       .  A
Ni59         O62   1.916       .  S
Ni59         O64   1.900       .  S
C60          O70   1.276       .  A
C60        C2618   1.487   1_655  S
O61         Ni77   1.925       .  S
O61          C67   1.276       .  A
O62          C67   1.276       .  A
C63        C2672   1.480       .  S
O64          C66   1.267       .  A
O65         Ni76   1.922       .  S
C66          O72   1.271       .  A
C66        C2636   1.476       .  S
C67        C2818   1.482       .  S
H68          O69   0.966       .  S
O69         Ni77   1.926       .  S
O69         Ni71   1.926       .  S
O69         Ni76   1.915       .  S
O70         Ni71   1.940       .  S
Ni71         O75   1.929       .  S
Ni71         O73   1.923       .  S
O72         Ni77   1.933       .  S
C74          O75   1.271       .  A
C74        C2654   1.486       .  S
O79         Ni85   1.950       .  S
O79         C100   1.276       .  A
O80        Ni103   1.925       .  S
O80          C89   1.273       .  A
O81         Ni85   1.908       .  S
O81        Ni103   1.905       .  S
O81         Ni97   1.890       .  S
O81         H104   0.966       .  S
C82          O99   1.265       .  A
C82          O91   1.272       .  A
C82        C2692   1.483       .  S
O83        Ni102   1.916       .  S
O83          C89   1.270       .  A
O84        Ni102   1.902       .  S
O84          C86   1.271       .  A
Ni85         O88   1.924       .  S
Ni85         O90   1.913       .  S
C86          O96   1.279       .  A
C86        C2582   1.488       .  S
O87        Ni103   1.931       .  S
O87          C93   1.280       .  A
O88          C93   1.281       .  A
C89        C2656   1.488       .  S
O90          C92   1.271       .  A
O91        Ni102   1.930       .  S
C92          O98   1.275       .  A
C92        C2564   1.490       .  S
C93        C2708   1.484       .  S
H94          O95   0.966       .  S
O95        Ni103   1.936       .  S
O95         Ni97   1.920       .  S
O95        Ni102   1.918       .  S
O96         Ni97   1.958       .  S
Ni97        O101   1.896       .  S
Ni97         O99   1.909       .  S
O98        Ni103   1.939       .  S
C100        O101   1.263       .  A
C100       C2600   1.478       .  S
O105       Ni111   1.919       .  S
O105        C126   1.269       .  A
O106       Ni129   1.891       .  S
O106        C115   1.262       .  A
O107       Ni111   1.907       .  S
O107       Ni129   1.895       .  S
O107       Ni123   1.910       .  S
O107        H130   0.966       .  S
C108        O125   1.277       .  A
C108        O117   1.279       .  A
C108       C2620   1.487       .  S
O109       Ni128   1.950       .  S
O109        C115   1.274       .  A
O110       Ni128   1.903       .  S
O110        C112   1.270       .  A
Ni111       O114   1.936       .  S
Ni111       O116   1.902       .  S
C112        O122   1.275       .  A
C112       C2800   1.483       .  S
O113       Ni129   1.911       .  S
O113        C119   1.273       .  A
O114        C119   1.278       .  A
C115       C2546   1.475       .  S
O116        C118   1.265       .  A
O117       Ni128   1.932       .  S
C118        O124   1.270       .  A
C118       C2782   1.475       .  S
C119       C2638   1.471       .  S
H120        O121   0.966       .  S
O121       Ni129   1.912       .  S
O121       Ni123   1.915       .  S
O121       Ni128   1.910       .  S
O122       Ni123   1.936       .  S
Ni123       O127   1.921       .  S
Ni123       O125   1.927       .  S
O124       Ni129   1.937       .  S
C126        O127   1.272       .  A
C126       C2528   1.481       .  S
O131       Ni137   1.934       .  S
O131        C152   1.272       .  A
O132       Ni155   1.921       .  S
O132        C141   1.270       .  A
O133       Ni137   1.904       .  S
O133       Ni155   1.910       .  S
O133       Ni149   1.913       .  S
O133        H156   0.966       .  S
C134        O151   1.273       .  A
C134        O143   1.277       .  A
C134       C2584   1.487       .  S
O135       Ni154   1.920       .  S
O135        C141   1.269       .  A
O136       Ni154   1.899       .  S
O136        C138   1.267       .  A
Ni137       O140   1.919       .  S
Ni137       O142   1.913       .  S
C138        O148   1.273       .  A
C138       C2726   1.478       .  S
O139       Ni155   1.947       .  S
O139        C145   1.283       .  A
O140        C145   1.277       .  A
C141       C2530   1.482       .  S
O142        C144   1.270       .  A
O143       Ni154   1.934       .  S
C144        O150   1.272       .  A
C144       C2746   1.484       .  S
C145       C2566   1.485       .  S
H146        O147   0.966       .  S
O147       Ni155   1.926       .  S
O147       Ni149   1.910       .  S
O147       Ni154   1.909       .  S
O148       Ni149   1.942       .  S
Ni149       O153   1.905       .  S
Ni149       O151   1.918       .  S
O150       Ni155   1.930       .  S
C152        O153   1.268       .  A
C152       C2510   1.477       .  S
O157       Ni163   1.919       .  S
O157        C178   1.269       .  A
O158       Ni181   1.896       .  S
O158        C167   1.264       .  A
O159       Ni163   1.911       .  S
O159       Ni181   1.904       .  S
O159       Ni175   1.910       .  S
O159        H182   0.966       .  S
C160        O177   1.274       .  A
C160        O169   1.280       .  A
C160       C2440   1.479       .  S
O161       Ni180   1.949       .  S
O161        C167   1.276       .  A
O162       Ni180   1.912       .  S
O162        C164   1.271       .  A
Ni163       O166   1.921       .  S
Ni163       O168   1.910       .  S
C164        O174   1.273       .  A
C164       C2474   1.486       .  S
O165       Ni181   1.921       .  S
O165        C171   1.276       .  A
O166        C171   1.277       .  A
C167       C2402   1.476       .  S
O168        C170   1.269       .  A
O169       Ni180   1.931       .  S
C170        O176   1.270       .  A
C170       C2492   1.483       .  S
C171       C2458   1.481       .  S
H172        O173   0.966       .  S
O173       Ni181   1.910       .  S
O173       Ni175   1.908       .  S
O173       Ni180   1.908       .  S
O174       Ni175   1.933       .  S
Ni175       O179   1.912       .  S
Ni175       O177   1.913       .  S
O176       Ni181   1.931       .  S
C178        O179   1.267       .  A
C178       C2420   1.476       .  S
O183       Ni189   1.947       .  S
O183        C204   1.274       .  A
O184       Ni207   1.920       .  S
O184        C193   1.271       .  A
O185       Ni189   1.922       .  S
O185       Ni207   1.916       .  S
O185       Ni201   1.900       .  S
O185        H208   0.966       .  S
C186        O203   1.263       .  A
C186        O195   1.270       .  A
C186       C2386   1.467       .  S
O187       Ni206   1.903       .  S
O187        C193   1.269       .  A
O188       Ni206   1.899       .  S
O188        C190   1.267       .  A
Ni189       O192   1.925       .  S
Ni189       O194   1.913       .  S
C190        O200   1.277       .  A
C190       C2332   1.479       .  S
O191       Ni207   1.918       .  S
O191        C197   1.274       .  A
O192        C197   1.277       .  A
C193       C2422   1.481       .  S
O194        C196   1.272       .  A
O195       Ni206   1.930       .  S
C196        O202   1.274       .  A
C196       C2350   1.485       .  S
C197       C2368   1.483       .  S
H198        O199   0.966       .  S
O199       Ni207   1.925       .  S
O199       Ni201   1.905       .  S
O199       Ni206   1.918       .  S
O200       Ni201   1.955       .  S
Ni201       O205   1.884       .  S
Ni201       O203   1.906       .  S
O202       Ni207   1.936       .  S
C204        O205   1.259       .  A
C204       C2762   1.472       .  S
O209       Ni215   1.923       .  S
O209        C230   1.271       .  A
O210       Ni233   1.892       .  S
O210        C219   1.261       .  A
O211       Ni215   1.904       .  S
O211       Ni233   1.898       .  S
O211       Ni227   1.905       .  S
O211        H234   0.967       .  S
C212        O229   1.274       .  A
C212        O221   1.278       .  A
C212       C2294   1.482       .  S
O213       Ni232   1.939       .  S
O213        C219   1.272       .  A
O214       Ni232   1.898       .  S
O214        C216   1.267       .  A
Ni215       O218   1.935       .  S
Ni215       O220   1.902       .  S
C216        O226   1.274       .  A
C216       C2438   1.466       .  S
O217       Ni233   1.908       .  S
O217        C223   1.271       .  A
O218        C223   1.278       .  A
C219       C2260   1.472       .  S
O220        C222   1.266       .  A
O221       Ni232   1.928       .  S
C222        O228   1.270       .  A
C222       C2456   1.479       .  S
C223       C2276   1.474       .  S
H224        O225   0.966       .  S
O225       Ni233   1.915       .  S
O225       Ni227   1.919       .  S
O225       Ni232   1.911       .  S
O226       Ni227   1.934       .  S
Ni227       O231   1.914       .  S
Ni227       O229   1.919       .  S
O228       Ni233   1.941       .  S
C230        O231   1.270       .  A
C230       C2312   1.480       .  S
O235       Ni241   1.952       .  S
O235        C256   1.275       .  A
O236       Ni259   1.914       .  S
O236        C245   1.270       .  A
O237       Ni241   1.915       .  S
O237       Ni259   1.919       .  S
O237       Ni253   1.912       .  S
O237        H260   0.966       .  S
C238        O255   1.271       .  A
C238        O247   1.277       .  A
C238       C2242   1.474       .  S
O239       Ni258   1.922       .  S
O239        C245   1.270       .  A
O240       Ni258   1.905       .  S
O240        C242   1.266       .  A
Ni241       O244   1.932       .  S
Ni241       O246   1.902       .  S
C242        O252   1.268       .  A
C242       C2384   1.471       .  S
O243       Ni259   1.920       .  S
O243        C249   1.274       .  A
O244        C249   1.279       .  A
C245       C2314   1.479       .  S
O246        C248   1.271       .  A
O247       Ni258   1.933       .  S
C248        O254   1.274       .  A
C248       C2366   1.483       .  S
C249       C2224   1.486       .  S
H250        O251   0.967       .  S
O251       Ni259   1.907       .  S
O251       Ni253   1.900       .  S
O251       Ni258   1.913       .  S
O252       Ni253   1.929       .  S
Ni253       O257   1.892       .  S
Ni253       O255   1.908       .  S
O254       Ni259   1.934       .  S
C256        O257   1.261       .  A
C256       C2602   1.478       .  S
O261       Ni267   1.916       .  S
O261        C282   1.267       .  A
O262       Ni285   1.912       .  S
O262        C271   1.268       .  A
O263       Ni267   1.908       .  S
O263       Ni285   1.911       .  S
O263       Ni279   1.921       .  S
O263        H286   0.966       .  S
C264        O281   1.282       .  A
C264        O273   1.274       .  A
C264       C2476   1.481       .  S
O265       Ni284   1.926       .  S
O265        C271   1.269       .  A
O266       Ni284   1.901       .  S
O266        C268   1.270       .  A
Ni267       O270   1.926       .  S
Ni267       O272   1.904       .  S
C268        O278   1.275       .  A
C268       C2296   1.484       .  S
O269       Ni285   1.924       .  S
O269        C275   1.277       .  A
O270        C275   1.276       .  A
C271       C2186   1.475       .  S
O272        C274   1.266       .  A
O273       Ni284   1.910       .  S
C274        O280   1.268       .  A
C274       C2278   1.472       .  S
C275       C2494   1.477       .  S
H276        O277   0.966       .  S
O277       Ni285   1.921       .  S
O277       Ni279   1.921       .  S
O277       Ni284   1.902       .  S
O278       Ni279   1.938       .  S
Ni279       O283   1.935       .  S
Ni279       O281   1.945       .  S
O280       Ni285   1.926       .  S
C282        O283   1.274       .  A
C282       C2204   1.489       .  S
O287       Ni293   1.938       .  S
O287        C308   1.271       .  A
O288       Ni311   1.939       .  S
O288        C297   1.276       .  A
O289       Ni293   1.915       .  S
O289       Ni311   1.930       .  S
O289       Ni305   1.914       .  S
O289        H312   0.966       .  S
C290        O307   1.270       .  A
C290        O299   1.277       .  A
C290       C2330   1.475   1_565  S
O291       Ni310   1.915       .  S
O291        C297   1.267       .  A
O292       Ni310   1.898       .  S
O292        C294   1.263       .  A
Ni293       O296   1.912       .  S
Ni293       O298   1.906       .  S
C294        O304   1.268       .  A
C294       C2240   1.471       .  S
O295       Ni311   1.940       .  S
O295        C301   1.280       .  A
O296        C301   1.273       .  A
C297       C2206   1.493       .  S
O298        C300   1.271       .  A
O299       Ni310   1.941       .  S
C300        O306   1.276       .  A
C300       C2222   1.487       .  S
C301       C2348   1.480       .  S
H302        O303   0.966       .  S
O303       Ni311   1.918       .  S
O303       Ni305   1.905       .  S
O303       Ni310   1.916       .  S
O304       Ni305   1.934       .  S
Ni305       O309   1.898       .  S
Ni305       O307   1.909       .  S
O306       Ni311   1.940       .  S
C308        O309   1.261       .  A
C308       C2512   1.477       .  S
O313       Ni319   1.922       .  S
O313        C334   1.269       .  A
O314       Ni337   1.903       .  S
O314        C323   1.265       .  A
O315       Ni319   1.912       .  S
O315       Ni337   1.913       .  S
O315       Ni331   1.927       .  S
O315        H338   0.966       .  S
C316        O333   1.282       .  A
C316        O325   1.279       .  A
C316       C2134   1.485       .  S
O317       Ni336   1.936       .  S
O317        C323   1.272       .  A
O318       Ni336   1.900       .  S
O318        C320   1.266       .  A
Ni319       O322   1.929       .  S
Ni319       O324   1.902       .  S
C320        O330   1.274       .  A
C320       C2096   1.473       .  S
O321       Ni337   1.909       .  S
O321        C327   1.270       .  A
O322        C327   1.276       .  A
C323       C2548   1.478       .  S
O324        C326   1.269       .  A
O325       Ni336   1.916       .  S
C326        O332   1.273       .  A
C326       C2114   1.484       .  S
C327       C2150   1.477       .  S
H328        O329   0.966       .  S
O329       Ni337   1.901       .  S
O329       Ni331   1.914       .  S
O329       Ni336   1.901       .  S
O330       Ni331   1.939       .  S
Ni331       O335   1.930       .  S
Ni331       O333   1.936       .  S
O332       Ni337   1.938       .  S
C334        O335   1.273       .  A
C334       C2168   1.488       .  S
O339       Ni345   1.944       .  S
O339        C360   1.277       .  A
O340       Ni363   1.939       .  S
O340        C349   1.274       .  A
O341       Ni345   1.897       .  S
O341       Ni363   1.910       .  S
O341       Ni357   1.909       .  S
O341        H364   0.966       .  S
C342        O359   1.277       .  A
C342        O351   1.278       .  A
C342       C2060   1.481       .  S
O343       Ni362   1.912       .  S
O343        C349   1.266       .  A
O344       Ni362   1.900       .  S
O344        C346   1.266       .  A
Ni345       O348   1.927       .  S
Ni345       O350   1.910       .  S
C346        O356   1.274       .  A
C346       C2026   1.478       .  S
O347       Ni363   1.932       .  S
O347        C353   1.282       .  A
O348        C353   1.281       .  A
C349       C2170   1.490       .  S
O350        C352   1.271       .  A
O351       Ni362   1.920       .  S
C352        O358   1.276       .  A
C352       C2008   1.490       .  S
C353       C2042   1.487       .  S
H354        O355   0.967       .  S
O355       Ni363   1.923       .  S
O355       Ni357   1.905       .  S
O355       Ni362   1.902       .  S
O356       Ni357   1.941       .  S
Ni357       O361   1.907       .  S
Ni357       O359   1.926       .  S
O358       Ni363   1.941       .  S
C360        O361   1.268       .  A
C360       C2078   1.484       .  S
O365       Ni371   1.902       .  S
O365        C386   1.267       .  A
O366       Ni389   1.914       .  S
O366        C375   1.271       .  A
O367       Ni371   1.910       .  S
O367       Ni389   1.920       .  S
O367       Ni383   1.939       .  S
O367        H390   0.966       .  S
C368        O385   1.277       .  A
C368        O377   1.275       .  A
C368       C1972   1.479       .  S
O369       Ni388   1.934   1_545  S
O369        C375   1.273       .  A
O370       Ni388   1.908       .  S
O370        C372   1.271       .  A
Ni371       O374   1.916       .  S
Ni371       O376   1.893       .  S
C372        O382   1.272       .  A
C372       C2132   1.481       .  S
O373       Ni389   1.921       .  S
O373        C379   1.267       .  A
O374        C379   1.268       .  A
C375       C2872   1.482       .  S
O376        C378   1.270       .  A
O377       Ni388   1.921       .  S
C378        O384   1.283       .  A
C378       C2152   1.473       .  S
C379       C1988   1.485       .  S
H380        O381   0.966       .  S
O381       Ni389   1.909       .  S
O381       Ni383   1.912       .  S
O381       Ni388   1.905   1_545  S
O382       Ni383   1.928   1_565  S
Ni383       O387   1.922   1_545  S
Ni383       O385   1.929   1_545  S
O384       Ni389   1.964       .  S
C386        O387   1.270   1_545  A
C386       C1954   1.484   1_545  S
O391       Ni397   1.941       .  S
O391        C412   1.273   1_545  A
O392       Ni415   1.912       .  S
O392        C401   1.271   1_545  A
O393       Ni397   1.907   1_565  S
O393       Ni415   1.904   1_565  S
O393       Ni409   1.897       .  S
O393        H416   0.966       .  S
C394        O411   1.264       .  A
C394        O403   1.273       .  A
C394       C1900   1.476       .  S
O395       Ni414   1.918       .  S
O395        C401   1.272       .  A
O396       Ni414   1.901       .  S
O396        C398   1.270       .  A
Ni397       O400   1.922       .  S
Ni397       O402   1.903       .  S
C398        O408   1.278       .  A
C398       C2062   1.481       .  S
O399       Ni415   1.931       .  S
O399        C405   1.279       .  A
O400        C405   1.278       .  A
C401       C1952   1.479   1_565  S
O402        C404   1.270       .  A
O403       Ni414   1.943       .  S
C404        O410   1.275       .  A
C404       C2044   1.487       .  S
C405       C1918   1.486       .  S
H406        O407   0.966       .  S
O407       Ni415   1.933   1_565  S
O407       Ni409   1.905       .  S
O407       Ni414   1.919       .  S
O408       Ni409   1.954       .  S
Ni409       O413   1.892       .  S
Ni409       O411   1.908       .  S
O410       Ni415   1.939       .  S
C412        O413   1.261       .  A
C412       C1934   1.471       .  S
O417       Ni423   1.921       .  S
O417        C438   1.269   1_655  A
O418       Ni441   1.901       .  S
O418        C427   1.268       .  A
O419       Ni423   1.908       .  S
O419       Ni441   1.912       .  S
O419       Ni435   1.918   1_655  S
O419        H442   0.966       .  S
C420        O437   1.276       .  A
C420        O429   1.279       .  A
C420       C2098   1.486       .  S
O421       Ni440   1.946       .  S
O421        C427   1.276   1_455  A
O422       Ni440   1.912       .  S
O422        C424   1.272       .  A
Ni423       O426   1.916       .  S
Ni423       O428   1.901       .  S
C424        O434   1.273       .  A
C424       C1970   1.485       .  S
O425       Ni441   1.925       .  S
O425        C431   1.274       .  A
O426        C431   1.275       .  A
C427       C2674   1.482       .  S
O428        C430   1.269       .  A
O429       Ni440   1.932       .  S
C430        O436   1.272       .  A
C430       C1990   1.484       .  S
C431       C2116   1.484       .  S
H432        O433   0.966       .  S
O433       Ni441   1.913   1_455  S
O433       Ni435   1.914       .  S
O433       Ni440   1.907       .  S
O434       Ni435   1.934       .  S
Ni435       O439   1.923       .  S
Ni435       O437   1.923       .  S
O436       Ni441   1.935       .  S
C438        O439   1.271       .  A
C438       C1880   1.484       .  S
O443       Ni449   1.936       .  S
O443        C464   1.272       .  A
O444       Ni467   1.924       .  S
O444        C453   1.273       .  A
O445       Ni449   1.902       .  S
O445       Ni467   1.911       .  S
O445       Ni461   1.915       .  S
O445        H468   0.966       .  S
C446        O463   1.273       .  A
C446        O455   1.277       .  A
C446       C2024   1.483       .  S
O447       Ni466   1.924   1_655  S
O447        C453   1.272       .  A
O448       Ni466   1.904       .  S
O448        C450   1.268       .  A
Ni449       O452   1.925       .  S
Ni449       O454   1.903       .  S
C450        O460   1.274       .  A
C450       C1898   1.479       .  S
O451       Ni467   1.937       .  S
O451        C457   1.280       .  A
O452        C457   1.278       .  A
C453       C1882   1.488       .  S
O454        C456   1.270       .  A
O455       Ni466   1.934       .  S
C456        O462   1.275       .  A
C456       C1916   1.485       .  S
C457       C2006   1.490       .  S
H458        O459   0.966       .  S
O459       Ni467   1.920       .  S
O459       Ni461   1.912       .  S
O459       Ni466   1.906   1_655  S
O460       Ni461   1.946   1_455  S
Ni461       O465   1.911       .  S
Ni461       O463   1.914   1_655  S
O462       Ni467   1.939       .  S
C464        O465   1.269       .  A
C464       C1862   1.483       .  S
O469       Ni475   1.917       .  S
O469        C490   1.267       .  A
O470       Ni493   1.900       .  S
O470        C479   1.264       .  A
O471       Ni475   1.910       .  S
O471       Ni493   1.908       .  S
O471       Ni487   1.912       .  S
O471        H494   0.966       .  S
C472        O489   1.275       .  A
C472        O481   1.282       .  A
C472       C1808   1.482       .  S
O473       Ni492   1.961       .  S
O473        C479   1.278       .  A
O474       Ni492   1.904       .  S
O474        C476   1.271       .  A
Ni475       O478   1.920       .  S
Ni475       O480   1.901       .  S
C476        O486   1.274       .  A
C476       C1774   1.482       .  S
O477       Ni493   1.914       .  S
O477        C483   1.273       .  A
O478        C483   1.276       .  A
C479       C1844   1.488       .  S
O480        C482   1.267       .  A
O481       Ni492   1.940       .  S
C482        O488   1.268       .  A
C482       C1756   1.475       .  S
C483       C1790   1.475       .  S
H484        O485   0.966       .  S
O485       Ni493   1.907       .  S
O485       Ni487   1.916       .  S
O485       Ni492   1.908       .  S
O486       Ni487   1.933       .  S
Ni487       O491   1.928       .  S
Ni487       O489   1.913       .  S
O488       Ni493   1.923       .  S
C490        O491   1.271       .  A
C490       C1828   1.485       .  S
O495       Ni501   1.954       .  S
O495        C516   1.276       .  A
O496       Ni519   1.925       .  S
O496        C505   1.274       .  A
O497       Ni501   1.911       .  S
O497       Ni519   1.914       .  S
O497       Ni513   1.897       .  S
O497        H520   0.966       .  S
C498        O515   1.264       .  A
C498        O507   1.271       .  A
C498       C1738   1.467       .  S
O499       Ni518   1.911       .  S
O499        C505   1.270       .  A
O500       Ni518   1.904       .  S
O500        C502   1.270       .  A
Ni501       O504   1.930       .  S
Ni501       O506   1.907       .  S
C502        O512   1.277       .  A
C502       C1700   1.485       .  S
O503       Ni519   1.919       .  S
O503        C509   1.276       .  A
O504        C509   1.280       .  A
C505       C1826   1.486       .  S
O506        C508   1.271       .  A
O507       Ni518   1.931       .  S
C508        O514   1.276       .  A
C508       C1684   1.489   1_455  S
C509       C1718   1.483       .  S
H510        O511   0.966       .  S
O511       Ni519   1.922       .  S
O511       Ni513   1.908       .  S
O511       Ni518   1.917       .  S
O512       Ni513   1.958       .  S
Ni513       O517   1.895       .  S
Ni513       O515   1.906       .  S
O514       Ni519   1.942       .  S
C516        O517   1.262       .  A
C516       C1864   1.479       .  S
O521       Ni527   1.914       .  S
O521        C542   1.268       .  A
O522       Ni545   1.886       .  S
O522        C531   1.260       .  A
O523       Ni527   1.908       .  S
O523       Ni545   1.903       .  S
O523       Ni539   1.921       .  S
O523        H546   0.967       .  S
C524        O541   1.280       .  A
C524        O533   1.280       .  A
C524       C1610   1.485       .  S
O525       Ni544   1.947       .  S
O525        C531   1.275       .  A
O526       Ni544   1.904       .  S
O526        C528   1.270       .  A
Ni527       O530   1.926       .  S
Ni527       O532   1.903       .  S
C528        O538   1.274       .  A
C528       C1810   1.484       .  S
O529       Ni545   1.919       .  S
O529        C535   1.274   1_455  A
O530        C535   1.277   1_455  A
C531       C1664   1.470       .  S
O532        C534   1.266       .  A
O533       Ni544   1.926       .  S
C534        O540   1.266       .  A
C534       C1792   1.473       .  S
C535       C1628   1.482       .  S
H536        O537   0.966       .  S
O537       Ni545   1.904       .  S
O537       Ni539   1.908       .  S
O537       Ni544   1.900       .  S
O538       Ni539   1.935       .  S
Ni539       O543   1.924       .  S
Ni539       O541   1.930       .  S
O540       Ni545   1.920       .  S
C542        O543   1.271       .  A
C542       C1646   1.481       .  S
O547       Ni553   1.946       .  S
O547        C568   1.275       .  A
O548       Ni571   1.920       .  S
O548        C557   1.270       .  A
O549       Ni553   1.905       .  S
O549       Ni571   1.910       .  S
O549       Ni565   1.913       .  S
O549        H572   0.966       .  S
C550        O567   1.276       .  A
C550        O559   1.278       .  A
C550       C1592   1.484       .  S
O551       Ni570   1.915       .  S
O551        C557   1.267       .  A
O552       Ni570   1.902       .  S
O552        C554   1.266       .  A
Ni553       O556   1.933       .  S
Ni553       O558   1.903       .  S
C554        O564   1.266       .  A
C554       C1736   1.470       .  S
O555       Ni571   1.928       .  S
O555        C561   1.278       .  A
O556        C561   1.280       .  A
C557       C1648   1.478       .  S
O558        C560   1.271       .  A
O559       Ni570   1.927       .  S
C560        O566   1.274       .  A
C560       C1720   1.483       .  S
C561       C1576   1.489       .  S
H562        O563   0.966       .  S
O563       Ni571   1.919       .  S
O563       Ni565   1.901       .  S
O563       Ni570   1.909       .  S
O564       Ni565   1.919       .  S
Ni565       O569   1.889       .  S
Ni565       O567   1.922       .  S
O566       Ni571   1.936       .  S
C568        O569   1.262       .  A
C568       C1936   1.473       .  S
O573       Ni579   1.923       .  S
O573        C594   1.270       .  A
O574       Ni597   1.908       .  S
O574        C583   1.268       .  A
O575       Ni579   1.906       .  S
O575       Ni597   1.912       .  S
O575       Ni591   1.910       .  S
O575        H598   0.966       .  S
C576        O593   1.276       .  A
C576        O585   1.278       .  A
C576       C1772   1.481       .  S
O577       Ni596   1.933       .  S
O577        C583   1.272       .  A
O578       Ni596   1.912       .  S
O578        C580   1.271       .  A
Ni579       O582   1.922       .  S
Ni579       O584   1.901       .  S
C580        O590   1.271       .  A
C580       C1612   1.483       .  S
O581       Ni597   1.911       .  S
O581        C587   1.272       .  A
O582        C587   1.276       .  A
C583       C1538   1.477       .  S
O584        C586   1.268       .  A
O585       Ni596   1.921       .  S
C586        O592   1.274       .  A
C586       C1630   1.483       .  S
C587       C1754   1.475       .  S
H588        O589   0.966       .  S
O589       Ni597   1.911       .  S
O589       Ni591   1.912       .  S
O589       Ni596   1.905       .  S
O590       Ni591   1.929       .  S
Ni591       O595   1.917       .  S
Ni591       O593   1.922       .  S
O592       Ni597   1.942       .  S
C594        O595   1.268       .  A
C594       C1556   1.483       .  S
O599       Ni605   1.936       .  S
O599        C620   1.274       .  A
O600       Ni623   1.923       .  S
O600        C609   1.272       .  A
O601       Ni605   1.898       .  S
O601       Ni623   1.909       .  S
O601       Ni617   1.917       .  S
O601        H624   0.966       .  S
C602        O619   1.275       .  A
C602        O611   1.277       .  A
C602       C1702   1.486       .  S
O603       Ni622   1.920       .  S
O603        C609   1.269       .  A
O604       Ni622   1.902       .  S
O604        C606   1.268       .  A
Ni605       O608   1.925       .  S
Ni605       O610   1.909       .  S
C606        O616   1.273       .  A
C606       C1594   1.484       .  S
O607       Ni623   1.937       .  S
O607        C613   1.281       .  A
O608        C613   1.279       .  A
C609       C1558   1.483       .  S
O610        C612   1.271       .  A
O611       Ni622   1.927       .  S
C612        O618   1.276       .  A
C612       C1574   1.490       .  S
C613       C1682   1.490       .  S
H614        O615   0.966       .  S
O615       Ni623   1.922       .  S
O615       Ni617   1.912       .  S
O615       Ni622   1.910       .  S
O616       Ni617   1.941       .  S
Ni617       O621   1.911       .  S
Ni617       O619   1.923       .  S
O618       Ni623   1.941       .  S
C620        O621   1.269       .  A
C620       C2080   1.480       .  S
O625       Ni631   1.921       .  S
O625        C646   1.270       .  A
O626       Ni649   1.900       .  S
O626        C635   1.267       .  A
O627       Ni631   1.902       .  S
O627       Ni649   1.900       .  S
O627       Ni643   1.911       .  S
O627        H650   0.967       .  S
C628        O645   1.277       .  A
C628        O637   1.278       .  A
C628       C1466   1.485       .  S
O629       Ni648   1.932       .  S
O629        C635   1.271       .  A
O630       Ni648   1.903       .  S
O630        C632   1.271       .  A
Ni631       O634   1.928       .  S
Ni631       O636   1.911       .  S
C632        O642   1.278       .  A
C632       C1502   1.488       .  S
O633       Ni649   1.922       .  S
O633        C639   1.278       .  A
O634        C639   1.279       .  A
C635       C1666   1.474       .  S
O636        C638   1.268       .  A
O637       Ni648   1.921       .  S
C638        O644   1.269       .  A
C638       C1486   1.480       .  S
C639       C1448   1.483   1_655  S
H640        O641   0.966       .  S
O641       Ni649   1.919       .  S
O641       Ni643   1.910       .  S
O641       Ni648   1.897       .  S
O642       Ni643   1.945       .  S
Ni643       O647   1.917       .  S
Ni643       O645   1.930       .  S
O644       Ni649   1.932       .  S
C646        O647   1.271       .  A
C646       C1520   1.480       .  S
O651       Ni657   1.937       .  S
O651        C672   1.273       .  A
O652       Ni675   1.927       .  S
O652        C661   1.267       .  A
O653       Ni657   1.910       .  S
O653       Ni675   1.918       .  S
O653       Ni669   1.918       .  S
O653        H676   0.966       .  S
C654        O671   1.276       .  A
C654        O663   1.276       .  A
C654       C1412   1.482       .  S
O655       Ni674   1.911       .  S
O655        C661   1.264       .  A
O656       Ni674   1.892       .  S
O656        C658   1.267       .  A
Ni657       O660   1.924       .  S
Ni657       O662   1.913       .  S
C658        O668   1.271       .  A
C658       C1376   1.479       .  S
O659       Ni675   1.922       .  S
O659        C665   1.276       .  A
O660        C665   1.277       .  A
C661       C1522   1.482       .  S
O662        C664   1.271       .  A
O663       Ni674   1.915       .  S
C664        O670   1.269       .  A
C664       C1360   1.478       .  S
C665       C1394   1.484       .  S
H666        O667   0.966       .  S
O667       Ni675   1.919       .  S
O667       Ni669   1.908       .  S
O667       Ni674   1.906       .  S
O668       Ni669   1.934       .  S
Ni669       O673   1.908       .  S
Ni669       O671   1.925       .  S
O670       Ni675   1.922       .  S
C672        O673   1.269       .  A
C672       C1430   1.480       .  S
O677       Ni683   1.923       .  S
O677        C698   1.269       .  A
O678       Ni701   1.919       .  S
O678        C687   1.272       .  A
O679       Ni683   1.903       .  S
O679       Ni701   1.912       .  S
O679       Ni695   1.904       .  S
O679        H702   0.966       .  S
C680        O697   1.273       .  A
C680        O689   1.279       .  A
C680       C1322   1.482       .  S
O681       Ni700   1.941       .  S
O681        C687   1.275       .  A
O682       Ni700   1.908       .  S
O682        C684   1.271       .  A
Ni683       O686   1.916       .  S
Ni683       O688   1.901       .  S
C684        O694   1.273       .  A
C684       C1468   1.485       .  S
O685       Ni701   1.919       .  S
O685        C691   1.275       .  A
O686        C691   1.276       .  A
C687       C1846   1.489       .  S
O688        C690   1.268       .  A
O689       Ni700   1.934       .  S
C690        O696   1.274       .  A
C690       C1450   1.483       .  S
C691       C1342   1.477       .  S
H692        O693   0.966       .  S
O693       Ni701   1.921       .  S
O693       Ni695   1.914       .  S
O693       Ni700   1.904       .  S
O694       Ni695   1.933       .  S
Ni695       O699   1.915       .  S
Ni695       O697   1.917       .  S
O696       Ni701   1.946       .  S
C698        O699   1.269       .  A
C698       C1304   1.480       .  S
O703       Ni709   1.953       .  S
O703        C724   1.277       .  A
O704       Ni727   1.921       .  S
O704        C713   1.268       .  A
O705       Ni709   1.911       .  S
O705       Ni727   1.912       .  S
O705       Ni721   1.909       .  S
O705        H728   0.966       .  S
C706        O723   1.275       .  A
C706        O715   1.277       .  A
C706       C1268   1.481       .  S
O707       Ni726   1.920       .  S
O707        C713   1.268       .  A
O708       Ni726   1.905       .  S
O708        C710   1.268       .  A
Ni709       O712   1.937       .  S
Ni709       O714   1.909       .  S
C710        O720   1.270       .  A
C710       C1414   1.480       .  S
O711       Ni727   1.918       .  S
O711        C717   1.276       .  A
O712        C717   1.281       .  A
C713       C1306   1.483       .  S
O714        C716   1.271       .  A
O715       Ni726   1.921       .  S
C716        O722   1.271       .  A
C716       C1396   1.480   1_545  S
C717       C1252   1.486       .  S
H718        O719   0.966       .  S
O719       Ni727   1.915       .  S
O719       Ni721   1.904       .  S
O719       Ni726   1.909       .  S
O720       Ni721   1.927       .  S
Ni721       O725   1.896       .  S
Ni721       O723   1.921       .  S
O722       Ni727   1.926       .  S
C724        O725   1.264       .  A
C724       C1286   1.480       .  S
O729       Ni735   1.915       .  S
O729        C750   1.267       .  A
O730       Ni753   1.896       .  S
O730        C739   1.263       .  A
O731       Ni735   1.908       .  S
O731       Ni753   1.904       .  S
O731       Ni747   1.918       .  S
O731        H754   0.966       .  S
C732        O749   1.276       .  A
C732        O741   1.280       .  A
C732       C1504   1.486       .  S
O733       Ni752   1.947       .  S
O733        C739   1.276       .  A
O734       Ni752   1.899       .  S
O734        C736   1.268       .  A
Ni735       O738   1.915   1_545  S
Ni735       O740   1.911       .  S
C736        O746   1.277       .  A
C736       C1324   1.475       .  S
O737       Ni753   1.933   1_565  S
O737        C743   1.279       .  A
O738        C743   1.274       .  A
C739       C1540   1.479       .  S
O740        C742   1.269       .  A
O741       Ni752   1.938       .  S
C742        O748   1.265       .  A
C742       C1340   1.474       .  S
C743       C1484   1.476       .  S
H744        O745   0.966       .  S
O745       Ni753   1.914       .  S
O745       Ni747   1.916       .  S
O745       Ni752   1.902       .  S
O746       Ni747   1.947       .  S
Ni747       O751   1.928       .  S
Ni747       O749   1.918       .  S
O748       Ni753   1.912       .  S
C750        O751   1.272       .  A
C750       C1232   1.484       .  S
O755       Ni761   1.944       .  S
O755        C776   1.273       .  A
O756       Ni779   1.933       .  S
O756        C765   1.275       .  A
O757       Ni761   1.903       .  S
O757       Ni779   1.911       .  S
O757       Ni773   1.893       .  S
O757        H780   0.966       .  S
C758        O775   1.265       .  A
C758        O767   1.271       .  A
C758       C1378   1.476       .  S
O759       Ni778   1.904       .  S
O759        C765   1.268       .  A
O760       Ni778   1.896       .  S
O760        C762   1.267       .  A
Ni761       O764   1.916       .  S
Ni761       O766   1.903       .  S
C762        O772   1.274       .  A
C762       C1270   1.481       .  S
O763       Ni779   1.935       .  S
O763        C769   1.282       .  A
O764        C769   1.277       .  A
C765       C1234   1.490       .  S
O766        C768   1.270       .  A
O767       Ni778   1.921       .  S
C768        O774   1.275       .  A
C768       C1250   1.488       .  S
C769       C1358   1.474       .  S
H770        O771   0.966       .  S
O771       Ni779   1.929       .  S
O771       Ni773   1.917       .  S
O771       Ni778   1.912       .  S
O772       Ni773   1.947       .  S
Ni773       O777   1.896       .  S
Ni773       O775   1.905       .  S
O774       Ni779   1.940       .  S
C776        O777   1.262       .  A
C776       C1214   1.477       .  S
O781       Ni787   1.931       .  S
O781        C802   1.272       .  A
O782       Ni805   1.928       .  S
O782        C791   1.272       .  A
O783       Ni787   1.908       .  S
O783       Ni805   1.926       .  S
O783       Ni799   1.936       .  S
O783        H806   0.966       .  S
C784        O801   1.283       .  A
C784        O793   1.274       .  A
C784       C1124   1.475       .  S
O785       Ni804   1.916       .  S
O785        C791   1.268       .  A
O786       Ni804   1.907       .  S
O786        C788   1.269       .  A
Ni787       O790   1.930       .  S
Ni787       O792   1.900       .  S
C788        O798   1.269       .  A
C788       C1162   1.482       .  S
O789       Ni805   1.917       .  S
O789        C795   1.271       .  A
O790        C795   1.276       .  A
C791       C1196   1.486       .  S
O792        C794   1.269       .  A
O793       Ni804   1.911       .  S
C794        O800   1.279       .  A
C794       C1178   1.477       .  S
C795       C1144   1.485       .  S
H796        O797   0.966       .  S
O797       Ni805   1.907       .  S
O797       Ni799   1.905       .  S
O797       Ni804   1.902       .  S
O798       Ni799   1.928       .  S
Ni799       O803   1.914       .  S
Ni799       O801   1.941       .  S
O800       Ni805   1.946       .  S
C802        O803   1.270       .  A
C802       C1432   1.481       .  S
O807       Ni813   1.921       .  S
O807        C828   1.270       .  A
O808       Ni831   1.906       .  S
O808        C817   1.267       .  A
O809       Ni813   1.908       .  S
O809       Ni831   1.911       .  S
O809       Ni825   1.920       .  S
O809        H832   0.966       .  S
C810        O827   1.280       .  A
C810        O819   1.277       .  A
C810       C1052   1.492       .  S
O811       Ni830   1.934       .  S
O811        C817   1.271       .  A
O812       Ni830   1.901       .  S
O812        C814   1.270       .  A
Ni813       O816   1.932       .  S
Ni813       O818   1.904       .  S
C814        O824   1.274       .  A
C814       C1090   1.481       .  S
O815       Ni831   1.917       .  S
O815        C821   1.273       .  A
O816        C821   1.276       .  A
C817       C2404   1.479       .  S
O818        C820   1.268       .  A
O819       Ni830   1.921       .  S
C820        O826   1.272       .  A
C820       C1106   1.474       .  S
C821       C1072   1.485       .  S
H822        O823   0.966       .  S
O823       Ni831   1.918       .  S
O823       Ni825   1.916       .  S
O823       Ni830   1.905       .  S
O824       Ni825   1.935       .  S
Ni825       O829   1.925       .  S
Ni825       O827   1.941       .  S
O826       Ni831   1.938       .  S
C828        O829   1.274       .  A
C828       C1198   1.487       .  S
O833       Ni839   1.943       .  S
O833        C854   1.273   1_455  A
O834       Ni857   1.922       .  S
O834        C843   1.272       .  A
O835       Ni839   1.908       .  S
O835       Ni857   1.917       .  S
O835       Ni851   1.910   1_455  S
O835        H858   0.966   1_455  S
C836        O853   1.272       .  A
C836        O845   1.278       .  A
C836        C998   1.476       .  S
O837       Ni856   1.923       .  S
O837        C843   1.270   1_655  A
O838       Ni856   1.916       .  S
O838        C840   1.269       .  A
Ni839       O842   1.922       .  S
Ni839       O844   1.901       .  S
C840        O850   1.267       .  A
C840       C1126   1.480       .  S
O841       Ni857   1.920       .  S
O841        C847   1.275       .  A
O842        C847   1.278       .  A
C843       C1034   1.484       .  S
O844        C846   1.270       .  A
O845       Ni856   1.928       .  S
C846        O852   1.277       .  A
C846       C1142   1.486       .  S
C847       C1016   1.481       .  S
H848        O849   0.966       .  S
O849       Ni857   1.910   1_655  S
O849       Ni851   1.905       .  S
O849       Ni856   1.916       .  S
O850       Ni851   1.925       .  S
Ni851       O855   1.896       .  S
Ni851       O853   1.909       .  S
O852       Ni857   1.944       .  S
C854        O855   1.262       .  A
C854       C1216   1.476       .  S
O859       Ni865   1.920       .  S
O859        C880   1.272   1_455  A
O860       Ni883   1.897       .  S
O860        C869   1.265       .  A
O861       Ni865   1.916       .  S
O861       Ni883   1.907       .  S
O861       Ni877   1.927   1_455  S
O861        H884   0.966       .  S
C862        O879   1.276       .  A
C862        O871   1.277       .  A
C862        C962   1.484       .  S
O863       Ni882   1.941       .  S
O863        C869   1.273   1_655  A
O864       Ni882   1.914       .  S
O864        C866   1.272       .  A
Ni865       O868   1.936       .  S
Ni865       O870   1.903       .  S
C866        O876   1.275       .  A
C866       C1054   1.490       .  S
O867       Ni883   1.912       .  S
O867        C873   1.266       .  A
O868        C873   1.272       .  A
C869       C2188   1.478       .  S
O870        C872   1.271       .  A
O871       Ni882   1.923       .  S
C872        O878   1.279       .  A
C872       C1070   1.488       .  S
C873        C982   1.476       .  S
H874        O875   0.966   1_455  S
O875       Ni883   1.906   1_655  S
O875       Ni877   1.913       .  S
O875       Ni882   1.913       .  S
O876       Ni877   1.939       .  S
Ni877       O881   1.920       .  S
Ni877       O879   1.926       .  S
O878       Ni883   1.961       .  S
C880        O881   1.272       .  A
C880       C1036   1.487       .  S
O885       Ni891   1.941       .  S
O885        C906   1.274       .  A
O886       Ni909   1.915       .  S
O886        C895   1.268       .  A
O887       Ni891   1.906       .  S
O887       Ni909   1.908       .  S
O887       Ni903   1.915   1_565  S
O887        H910   0.966       .  S
C888        O905   1.274       .  A
C888        O897   1.275       .  A
C888       C1160   1.482       .  S
O889       Ni908   1.918       .  S
O889        C895   1.269   1_545  A
O890       Ni908   1.896       .  S
O890        C892   1.268       .  A
Ni891       O894   1.932       .  S
Ni891       O896   1.906       .  S
C892        O902   1.272       .  A
C892       C1000   1.478       .  S
O893       Ni909   1.921       .  S
O893        C899   1.276       .  A
O894        C899   1.279       .  A
C895        C946   1.478       .  S
O896        C898   1.271       .  A
O897       Ni908   1.917       .  S
C898        O904   1.271       .  A
C898       C1018   1.480       .  S
C899       C1180   1.483       .  S
H900        O901   0.966   1_565  S
O901       Ni909   1.913   1_545  S
O901       Ni903   1.908       .  S
O901       Ni908   1.902       .  S
O902       Ni903   1.935       .  S
Ni903       O907   1.900       .  S
Ni903       O905   1.921       .  S
O904       Ni909   1.926       .  S
C906        O907   1.267   1_565  A
C906       C1288   1.480   1_565  S
O911       Ni917   1.928       .  S
O911        C932   1.274       .  A
O912       Ni935   1.888       .  S
O912        C921   1.261       .  A
O913       Ni917   1.908       .  S
O913       Ni935   1.894       .  S
O913       Ni929   1.904   1_565  S
O913        H936   0.967       .  S
C914        O931   1.273       .  A
C914        O923   1.278       .  A
C914       C1088   1.480       .  S
O915       Ni934   1.942       .  S
O915        C921   1.274   1_545  A
O916       Ni934   1.903       .  S
O916        C918   1.271       .  A
Ni917       O920   1.941       .  S
Ni917       O922   1.912       .  S
C918        O928   1.276       .  A
C918        C964   1.485       .  S
O919       Ni935   1.908       .  S
O919        C925   1.271       .  A
O920        C925   1.279       .  A
C921       C2258   1.470       .  S
O922        C924   1.268       .  A
O923       Ni934   1.929       .  S
C924        O930   1.270       .  A
C924        C980   1.477       .  S
C925       C1108   1.474       .  S
H926        O927   0.966       .  S
O927       Ni935   1.911       .  S
O927       Ni929   1.910   1_565  S
O927       Ni934   1.907   1_565  S
O928       Ni929   1.940       .  S
Ni929       O933   1.905       .  S
Ni929       O931   1.916       .  S
O930       Ni935   1.938       .  S
C932        O933   1.270   1_565  A
C932        C944   1.477       .  S
C937        C945   1.483       .  S
C937        C938   1.404   1_565  A
C937        C942   1.405       .  A
C938        C939   1.395   1_554  A
C938        H947   1.084       .  S
C939        C940   1.406   1_545  A
C939        H948   1.080       .  S
C940        C943   1.486       .  S
C940        C941   1.406       .  A
C941        C942   1.398   1_556  A
C941        H949   1.083       .  S
C942        H950   1.081       .  S
C943        H951   1.087       .  S
C943        C944   1.350       .  D
C944        H952   1.083   1_565  S
C945        H953   1.087   1_565  S
C945        C946   1.350       .  D
C946        H954   1.084       .  S
C955        C963   1.487       .  S
C955        C956   1.403       .  A
C955        C960   1.408       .  A
C956        C957   1.395       .  A
C956        H965   1.084       .  S
C957        C958   1.403       .  A
C957        H966   1.084       .  S
C958        C961   1.489       .  S
C958        C959   1.409       .  A
C959        C960   1.405       .  A
C959        H967   1.082       .  S
C960        H968   1.082       .  S
C961        H969   1.087       .  S
C961        C962   1.348       .  D
C962        H970   1.085       .  S
C963        H971   1.088       .  S
C963        C964   1.350       .  D
C964        H972   1.085       .  S
C973        C981   1.479       .  S
C973        C974   1.401       .  A
C973        C978   1.406       .  A
C974        C975   1.396       .  A
C974        H983   1.084       .  S
C975        C976   1.407       .  A
C975        H984   1.082       .  S
C976        C979   1.485       .  S
C976        C977   1.404       .  A
C977        C978   1.402       .  A
C977        H985   1.083       .  S
C978        H986   1.083       .  S
C979        H987   1.087       .  S
C979        C980   1.344       .  D
C980        H988   1.087       .  S
C981        H989   1.088       .  S
C981        C982   1.344       .  D
C982        H990   1.086       .  S
C991        C999   1.486       .  S
C991        C992   1.404       .  A
C991        C996   1.409       .  A
C992        C993   1.394       .  A
C992       H1001   1.084       .  S
C993        C994   1.401       .  A
C993       H1002   1.084       .  S
C994        C997   1.481       .  S
C994        C995   1.407       .  A
C995        C996   1.400       .  A
C995       H1003   1.082       .  S
C996       H1004   1.080       .  S
C997       H1005   1.087       .  S
C997        C998   1.345       .  D
C998       H1006   1.085       .  S
C999       H1007   1.087       .  S
C999       C1000   1.348       .  D
C1000      H1008   1.083       .  S
C1009      C1017   1.487       .  S
C1009      C1010   1.409       .  A
C1009      C1014   1.402       .  A
C1010      C1011   1.402       .  A
C1010      H1019   1.080       .  S
C1011      C1012   1.409       .  A
C1011      H1020   1.080       .  S
C1012      C1015   1.488       .  S
C1012      C1013   1.403       .  A
C1013      C1014   1.393       .  A
C1013      H1021   1.084       .  S
C1014      H1022   1.084       .  S
C1015      H1023   1.087       .  S
C1015      C1016   1.348       .  D
C1016      H1024   1.083       .  S
C1017      H1025   1.087       .  S
C1017      C1018   1.347       .  D
C1018      H1026   1.084       .  S
C1027      C1035   1.492       .  S
C1027      C1028   1.407       .  A
C1027      C1032   1.406   1_455  A
C1028      C1029   1.398   1_556  A
C1028      H1037   1.083       .  S
C1029      C1030   1.404   1_455  A
C1029      H1038   1.081       .  S
C1030      C1033   1.492       .  S
C1030      C1031   1.408       .  A
C1031      C1032   1.402   1_554  A
C1031      H1039   1.083       .  S
C1032      H1040   1.080       .  S
C1033      H1041   1.087       .  S
C1033      C1034   1.354   1_655  D
C1034      H1042   1.084       .  S
C1035      H1043   1.087       .  S
C1035      C1036   1.354   1_455  D
C1036      H1044   1.083       .  S
C1045      C1053   1.495       .  S
C1045      C1046   1.411       .  A
C1045      C1050   1.403       .  A
C1046      C1047   1.409       .  A
C1046      H1055   1.081       .  S
C1047      C1048   1.410       .  A
C1047      H1056   1.081       .  S
C1048      C1051   1.496       .  S
C1048      C1049   1.405       .  A
C1049      C1050   1.397       .  A
C1049      H1057   1.084       .  S
C1050      H1058   1.084       .  S
C1051      H1059   1.087       .  S
C1051      C1052   1.353       .  D
C1052      H1060   1.084       .  S
C1053      H1061   1.087       .  S
C1053      C1054   1.350       .  D
C1054      H1062   1.085       .  S
C1063      C1071   1.485       .  S
C1063      C1064   1.408       .  A
C1063      C1068   1.400       .  A
C1064      C1065   1.409       .  A
C1064      H1073   1.083       .  S
C1065      C1066   1.412       .  A
C1065      H1074   1.081       .  S
C1066      C1069   1.494       .  S
C1066      C1067   1.404       .  A
C1067      C1068   1.393       .  A
C1067      H1075   1.084       .  S
C1068      H1076   1.084       .  S
C1069      H1077   1.087       .  S
C1069      C1070   1.349       .  D
C1070      H1078   1.084       .  S
C1071      H1079   1.088       .  S
C1071      C1072   1.347       .  D
C1072      H1080   1.086       .  S
C1081      C1089   1.486       .  S
C1081      C1082   1.408       .  A
C1081      C1086   1.403       .  A
C1082      C1083   1.403       .  A
C1082      H1091   1.081       .  S
C1083      C1084   1.410       .  A
C1083      H1092   1.081       .  S
C1084      C1087   1.487       .  S
C1084      C1085   1.401       .  A
C1085      C1086   1.394       .  A
C1085      H1093   1.084       .  S
C1086      H1094   1.084       .  S
C1087      H1095   1.087       .  S
C1087      C1088   1.345       .  D
C1088      H1096   1.085       .  S
C1089      H1097   1.088       .  S
C1089      C1090   1.348       .  D
C1090      H1098   1.085       .  S
C1099      C1107   1.478       .  S
C1099      C1100   1.401       .  A
C1099      C1104   1.405       .  A
C1100      C1101   1.395       .  A
C1100      H1109   1.084       .  S
C1101      C1102   1.406       .  A
C1101      H1110   1.083       .  S
C1102      C1105   1.480       .  S
C1102      C1103   1.404       .  A
C1103      C1104   1.400       .  A
C1103      H1111   1.083       .  S
C1104      H1112   1.083       .  S
C1105      H1113   1.087       .  S
C1105      C1106   1.344       .  D
C1106      H1114   1.086       .  S
C1107      H1115   1.088       .  S
C1107      C1108   1.343       .  D
C1108      H1116   1.086       .  S
C1117      C1125   1.491       .  S
C1117      C1118   1.402       .  A
C1117      C1122   1.410       .  A
C1118      C1119   1.399       .  A
C1118      H1127   1.083       .  S
C1119      C1120   1.410       .  A
C1119      H1128   1.082       .  S
C1120      C1123   1.495       .  S
C1120      C1121   1.404       .  A
C1121      C1122   1.402       .  A
C1121      H1129   1.083       .  S
C1122      H1130   1.081       .  S
C1123      H1131   1.087       .  S
C1123      C1124   1.345       .  D
C1124      H1132   1.085       .  S
C1125      H1133   1.087       .  S
C1125      C1126   1.345       .  D
C1126      H1134   1.085       .  S
C1135      C1143   1.490       .  S
C1135      C1136   1.410       .  A
C1135      C1140   1.402       .  A
C1136      C1137   1.406       .  A
C1136      H1145   1.082       .  S
C1137      C1138   1.408       .  A
C1137      H1146   1.082       .  S
C1138      C1141   1.488       .  S
C1138      C1139   1.403       .  A
C1139      C1140   1.397       .  A
C1139      H1147   1.084       .  S
C1140      H1148   1.083       .  S
C1141      H1149   1.087       .  S
C1141      C1142   1.350       .  D
C1142      H1150   1.086       .  S
C1143      H1151   1.087       .  S
C1143      C1144   1.347       .  D
C1144      H1152   1.086       .  S
C1153      C1161   1.488       .  S
C1153      C1154   1.401       .  A
C1153      C1158   1.410       .  A
C1154      C1155   1.393       .  A
C1154      H1163   1.084       .  S
C1155      C1156   1.402       .  A
C1155      H1164   1.084       .  S
C1156      C1159   1.486       .  S
C1156      C1157   1.409       .  A
C1157      C1158   1.405       .  A
C1157      H1165   1.081       .  S
C1158      H1166   1.081       .  S
C1159      H1167   1.088       .  S
C1159      C1160   1.348       .  D
C1160      H1168   1.085       .  S
C1161      H1169   1.087       .  S
C1161      C1162   1.346       .  D
C1162      H1170   1.084       .  S
C1171      C1179   1.489       .  S
C1171      C1172   1.402       .  A
C1171      C1176   1.408       .  A
C1172      C1173   1.399       .  A
C1172      H1181   1.083       .  S
C1173      C1174   1.410       .  A
C1173      H1182   1.081       .  S
C1174      C1177   1.495       .  S
C1174      C1175   1.405       .  A
C1175      C1176   1.402       .  A
C1175      H1183   1.083       .  S
C1176      H1184   1.082       .  S
C1177      H1185   1.087       .  S
C1177      C1178   1.346       .  D
C1178      H1186   1.085       .  S
C1179      H1187   1.087       .  S
C1179      C1180   1.347       .  D
C1180      H1188   1.086       .  S
C1189      C1197   1.494       .  S
C1189      C1190   1.409       .  A
C1189      C1194   1.405       .  A
C1190      C1191   1.401   1_556  A
C1190      H1199   1.083       .  S
C1191      C1192   1.405       .  A
C1191      H1200   1.081       .  S
C1192      C1195   1.493       .  S
C1192      C1193   1.408       .  A
C1193      C1194   1.401   1_554  A
C1193      H1201   1.083       .  S
C1194      H1202   1.080       .  S
C1195      H1203   1.087       .  S
C1195      C1196   1.355       .  D
C1196      H1204   1.084       .  S
C1197      H1205   1.087       .  S
C1197      C1198   1.356       .  D
C1198      H1206   1.083       .  S
C1207      C1215   1.488       .  S
C1207      C1208   1.407       .  A
C1207      C1212   1.402       .  A
C1208      C1209   1.398       .  A
C1208      H1217   1.082       .  S
C1209      C1210   1.410       .  A
C1209      H1218   1.079       .  S
C1210      C1213   1.494       .  S
C1210      C1211   1.405       .  A
C1211      C1212   1.400       .  A
C1211      H1219   1.083       .  S
C1212      H1220   1.083   1_655  S
C1213      H1221   1.087       .  S
C1213      C1214   1.347       .  D
C1214      H1222   1.082       .  S
C1215      H1223   1.087   1_655  S
C1215      C1216   1.345       .  D
C1216      H1224   1.085       .  S
C1225      C1233   1.489       .  S
C1225      C1226   1.408       .  A
C1225      C1230   1.403       .  A
C1226      C1227   1.397       .  A
C1226      H1235   1.084       .  S
C1227      C1228   1.404       .  A
C1227      H1236   1.080       .  S
C1228      C1231   1.491       .  S
C1228      C1229   1.409       .  A
C1229      C1230   1.402       .  A
C1229      H1237   1.083       .  S
C1230      H1238   1.081       .  S
C1231      H1239   1.087       .  S
C1231      C1232   1.355       .  D
C1232      H1240   1.083       .  S
C1233      H1241   1.086       .  S
C1233      C1234   1.359       .  D
C1234      H1242   1.084       .  S
C1243      C1251   1.491       .  S
C1243      C1244   1.402       .  A
C1243      C1248   1.410       .  A
C1244      C1245   1.395       .  A
C1244      H1253   1.084       .  S
C1245      C1246   1.404       .  A
C1245      H1254   1.084       .  S
C1246      C1249   1.492       .  S
C1246      C1247   1.410       .  A
C1247      C1248   1.407       .  A
C1247      H1255   1.081       .  S
C1248      H1256   1.081       .  S
C1249      H1257   1.087   1_455  S
C1249      C1250   1.351   1_455  D
C1250      H1258   1.084       .  S
C1251      H1259   1.087       .  S
C1251      C1252   1.348       .  D
C1252      H1260   1.085       .  S
C1261      C1269   1.490       .  S
C1261      C1262   1.403       .  A
C1261      C1266   1.409       .  A
C1262      C1263   1.394       .  A
C1262      H1271   1.084       .  S
C1263      C1264   1.403       .  A
C1263      H1272   1.084       .  S
C1264      C1267   1.489       .  S
C1264      C1265   1.410       .  A
C1265      C1266   1.402       .  A
C1265      H1273   1.080       .  S
C1266      H1274   1.080       .  S
C1267      H1275   1.087       .  S
C1267      C1268   1.348       .  D
C1268      H1276   1.084       .  S
C1269      H1277   1.087       .  S
C1269      C1270   1.349       .  D
C1270      H1278   1.083       .  S
C1279      C1287   1.490       .  S
C1279      C1280   1.404       .  A
C1279      C1284   1.408       .  A
C1280      C1281   1.401       .  A
C1280      H1289   1.083       .  S
C1281      C1282   1.408       .  A
C1281      H1290   1.082       .  S
C1282      C1285   1.490       .  S
C1282      C1283   1.403       .  A
C1283      C1284   1.399       .  A
C1283      H1291   1.083       .  S
C1284      H1292   1.082   1_545  S
C1285      H1293   1.087       .  S
C1285      C1286   1.346       .  D
C1286      H1294   1.086       .  S
C1287      H1295   1.087       .  S
C1287      C1288   1.348       .  D
C1288      H1296   1.085   1_545  S
C1297      C1305   1.489       .  S
C1297      C1298   1.405       .  A
C1297      C1302   1.406       .  A
C1298      C1299   1.396       .  A
C1298      H1307   1.084       .  S
C1299      C1300   1.406       .  A
C1299      H1308   1.079       .  S
C1300      C1303   1.492       .  S
C1300      C1301   1.408       .  A
C1301      C1302   1.401       .  A
C1301      H1309   1.083       .  S
C1302      H1310   1.080       .  S
C1303      H1311   1.087       .  S
C1303      C1304   1.353       .  D
C1304      H1312   1.082       .  S
C1305      H1313   1.087       .  S
C1305      C1306   1.351       .  D
C1306      H1314   1.083       .  S
C1315      C1323   1.499       .  S
C1315      C1316   1.407       .  A
C1315      C1320   1.412       .  A
C1316      C1317   1.403       .  A
C1316      H1325   1.083       .  S
C1317      C1318   1.407       .  A
C1317      H1326   1.082       .  S
C1318      C1321   1.487       .  S
C1318      C1319   1.400       .  A
C1319      C1320   1.398       .  A
C1319      H1327   1.084       .  S
C1320      H1328   1.079       .  S
C1321      H1329   1.087       .  S
C1321      C1322   1.345       .  D
C1322      H1330   1.086       .  S
C1323      H1331   1.087       .  S
C1323      C1324   1.348       .  D
C1324      H1332   1.081       .  S
C1333      C1341   1.479       .  S
C1333      C1334   1.406       .  A
C1333      C1338   1.403       .  A
C1334      C1335   1.400       .  A
C1334      H1343   1.082       .  S
C1335      C1336   1.410   1_455  A
C1335      H1344   1.081   1_455  S
C1336      C1339   1.482       .  S
C1336      C1337   1.400   1_655  A
C1337      C1338   1.393       .  A
C1337      H1345   1.084       .  S
C1338      H1346   1.084       .  S
C1339      H1347   1.087       .  S
C1339      C1340   1.342       .  D
C1340      H1348   1.085       .  S
C1341      H1349   1.088       .  S
C1341      C1342   1.348       .  D
C1342      H1350   1.085       .  S
C1351      C1359   1.486       .  S
C1351      C1352   1.401       .  A
C1351      C1356   1.410       .  A
C1352      C1353   1.396       .  A
C1352      H1361   1.083       .  S
C1353      C1354   1.408       .  A
C1353      H1362   1.082       .  S
C1354      C1357   1.489       .  S
C1354      C1355   1.403       .  A
C1355      C1356   1.401       .  A
C1355      H1363   1.083       .  S
C1356      H1364   1.082       .  S
C1357      H1365   1.087       .  S
C1357      C1358   1.344   1_565  D
C1358      H1366   1.086   1_545  S
C1359      H1367   1.087       .  S
C1359      C1360   1.344       .  D
C1360      H1368   1.086       .  S
C1369      C1377   1.477       .  S
C1369      C1370   1.407       .  A
C1369      C1374   1.399       .  A
C1370      C1371   1.403       .  A
C1370      H1379   1.082       .  S
C1371      C1372   1.409       .  A
C1371      H1380   1.080       .  S
C1372      C1375   1.483       .  S
C1372      C1373   1.403       .  A
C1373      C1374   1.390       .  A
C1373      H1381   1.084       .  S
C1374      H1382   1.084       .  S
C1375      H1383   1.088       .  S
C1375      C1376   1.348       .  D
C1376      H1384   1.084       .  S
C1377      H1385   1.088       .  S
C1377      C1378   1.344       .  D
C1378      H1386   1.086       .  S
C1387      C1395   1.490       .  S
C1387      C1388   1.402       .  A
C1387      C1392   1.411       .  A
C1388      C1389   1.395       .  A
C1388      H1397   1.084       .  S
C1389      C1390   1.403       .  A
C1389      H1398   1.084       .  S
C1390      C1393   1.488   1_455  S
C1390      C1391   1.408       .  A
C1391      C1392   1.403       .  A
C1391      H1399   1.081       .  S
C1392      H1400   1.080       .  S
C1393      H1401   1.087       .  S
C1393      C1394   1.350       .  D
C1394      H1402   1.084       .  S
C1395      H1403   1.087       .  S
C1395      C1396   1.347       .  D
C1396      H1404   1.083       .  S
C1405      C1413   1.489       .  S
C1405      C1406   1.403       .  A
C1405      C1410   1.410       .  A
C1406      C1407   1.394       .  A
C1406      H1415   1.084       .  S
C1407      C1408   1.402       .  A
C1407      H1416   1.084       .  S
C1408      C1411   1.486       .  S
C1408      C1409   1.408       .  A
C1409      C1410   1.403       .  A
C1409      H1417   1.081       .  S
C1410      H1418   1.080       .  S
C1411      H1419   1.087       .  S
C1411      C1412   1.349       .  D
C1412      H1420   1.085       .  S
C1413      H1421   1.087       .  S
C1413      C1414   1.348       .  D
C1414      H1422   1.083       .  S
C1423      C1431   1.490       .  S
C1423      C1424   1.404       .  A
C1423      C1428   1.408       .  A
C1424      C1425   1.401       .  A
C1424      H1433   1.083       .  S
C1425      C1426   1.407       .  A
C1425      H1434   1.083       .  S
C1426      C1429   1.488       .  S
C1426      C1427   1.404       .  A
C1427      C1428   1.402       .  A
C1427      H1435   1.083       .  S
C1428      H1436   1.082       .  S
C1429      H1437   1.087       .  S
C1429      C1430   1.346       .  D
C1430      H1438   1.086       .  S
C1431      H1439   1.087       .  S
C1431      C1432   1.345       .  D
C1432      H1440   1.086       .  S
C1441      C1449   1.490       .  S
C1441      C1442   1.403       .  A
C1441      C1446   1.410       .  A
C1442      C1443   1.393       .  A
C1442      H1451   1.084       .  S
C1443      C1444   1.401       .  A
C1443      H1452   1.084       .  S
C1444      C1447   1.484       .  S
C1444      C1445   1.408       .  A
C1445      C1446   1.405       .  A
C1445      H1453   1.082       .  S
C1446      H1454   1.080       .  S
C1447      H1455   1.088       .  S
C1447      C1448   1.348       .  D
C1448      H1456   1.085       .  S
C1449      H1457   1.087       .  S
C1449      C1450   1.349   1_565  D
C1450      H1458   1.084   1_545  S
C1459      C1467   1.488       .  S
C1459      C1460   1.410       .  A
C1459      C1464   1.401       .  A
C1460      C1461   1.407       .  A
C1460      H1469   1.081       .  S
C1461      C1462   1.411       .  A
C1461      H1470   1.080       .  S
C1462      C1465   1.491       .  S
C1462      C1463   1.403       .  A
C1463      C1464   1.392       .  A
C1463      H1471   1.084       .  S
C1464      H1472   1.084       .  S
C1465      H1473   1.087       .  S
C1465      C1466   1.349       .  D
C1466      H1474   1.084       .  S
C1467      H1475   1.087       .  S
C1467      C1468   1.348       .  D
C1468      H1476   1.085       .  S
C1477      C1485   1.487       .  S
C1477      C1478   1.402       .  A
C1477      C1482   1.408       .  A
C1478      C1479   1.397       .  A
C1478      H1487   1.083       .  S
C1479      C1480   1.408       .  A
C1479      H1488   1.082       .  S
C1480      C1483   1.492       .  S
C1480      C1481   1.405       .  A
C1481      C1482   1.403       .  A
C1481      H1489   1.083       .  S
C1482      H1490   1.082       .  S
C1483      H1491   1.087       .  S
C1483      C1484   1.348       .  D
C1484      H1492   1.085       .  S
C1485      H1493   1.087       .  S
C1485      C1486   1.345       .  D
C1486      H1494   1.086       .  S
C1495      C1503   1.492       .  S
C1495      C1496   1.402       .  A
C1495      C1500   1.411       .  A
C1496      C1497   1.395       .  A
C1496      H1505   1.084       .  S
C1497      C1498   1.404       .  A
C1497      H1506   1.084       .  S
C1498      C1501   1.490       .  S
C1498      C1499   1.409       .  A
C1499      C1500   1.407       .  A
C1499      H1507   1.081       .  S
C1500      H1508   1.081       .  S
C1501      H1509   1.087       .  S
C1501      C1502   1.352       .  D
C1502      H1510   1.085       .  S
C1503      H1511   1.087       .  S
C1503      C1504   1.349       .  D
C1504      H1512   1.085       .  S
C1513      C1521   1.488       .  S
C1513      C1514   1.406       .  A
C1513      C1518   1.406       .  A
C1514      C1515   1.396       .  A
C1514      H1523   1.084       .  S
C1515      C1516   1.405       .  A
C1515      H1524   1.079       .  S
C1516      C1519   1.490       .  S
C1516      C1517   1.408       .  A
C1517      C1518   1.400       .  A
C1517      H1525   1.083       .  S
C1518      H1526   1.080       .  S
C1519      H1527   1.087       .  S
C1519      C1520   1.353       .  D
C1520      H1528   1.083       .  S
C1521      H1529   1.087       .  S
C1521      C1522   1.352       .  D
C1522      H1530   1.083       .  S
C1531      C1539   1.488   1_565  S
C1531      C1532   1.402       .  A
C1531      C1536   1.409       .  A
C1532      C1533   1.397       .  A
C1532      H1541   1.083       .  S
C1533      C1534   1.408       .  A
C1533      H1542   1.081       .  S
C1534      C1537   1.491       .  S
C1534      C1535   1.404       .  A
C1535      C1536   1.402       .  A
C1535      H1543   1.083       .  S
C1536      H1544   1.082   1_565  S
C1537      H1545   1.087       .  S
C1537      C1538   1.347       .  D
C1538      H1546   1.085       .  S
C1539      H1547   1.087       .  S
C1539      C1540   1.345       .  D
C1540      H1548   1.085       .  S
C1549      C1557   1.491       .  S
C1549      C1550   1.408       .  A
C1549      C1554   1.405       .  A
C1550      C1551   1.401       .  A
C1550      H1559   1.083       .  S
C1551      C1552   1.407       .  A
C1551      H1560   1.080       .  S
C1552      C1555   1.491       .  S
C1552      C1553   1.406       .  A
C1553      C1554   1.398       .  A
C1553      H1561   1.083       .  S
C1554      H1562   1.080       .  S
C1555      H1563   1.087       .  S
C1555      C1556   1.352       .  D
C1556      H1564   1.083       .  S
C1557      H1565   1.087       .  S
C1557      C1558   1.354       .  D
C1558      H1566   1.083       .  S
C1567      C1575   1.496       .  S
C1567      C1568   1.404       .  A
C1567      C1572   1.411       .  A
C1568      C1569   1.397       .  A
C1568      H1577   1.084       .  S
C1569      C1570   1.404       .  A
C1569      H1578   1.084       .  S
C1570      C1573   1.494       .  S
C1570      C1571   1.409       .  A
C1571      C1572   1.408       .  A
C1571      H1579   1.082       .  S
C1572      H1580   1.081       .  S
C1573      H1581   1.087       .  S
C1573      C1574   1.352       .  D
C1574      H1582   1.085       .  S
C1575      H1583   1.087       .  S
C1575      C1576   1.350   1_655  D
C1576      H1584   1.084   1_455  S
C1585      C1593   1.491       .  S
C1585      C1586   1.410       .  A
C1585      C1590   1.404       .  A
C1586      C1587   1.405       .  A
C1586      H1595   1.080       .  S
C1587      C1588   1.409       .  A
C1587      H1596   1.082       .  S
C1588      C1591   1.487       .  S
C1588      C1589   1.401       .  A
C1589      C1590   1.395       .  A
C1589      H1597   1.084       .  S
C1590      H1598   1.084       .  S
C1591      H1599   1.087       .  S
C1591      C1592   1.347       .  D
C1592      H1600   1.085       .  S
C1593      H1601   1.087       .  S
C1593      C1594   1.350       .  D
C1594      H1602   1.084       .  S
C1603      C1611   1.489       .  S
C1603      C1604   1.410       .  A
C1603      C1608   1.402       .  A
C1604      C1605   1.405       .  A
C1604      H1613   1.082       .  S
C1605      C1606   1.409       .  A
C1605      H1614   1.081       .  S
C1606      C1609   1.491       .  S
C1606      C1607   1.404       .  A
C1607      C1608   1.396       .  A
C1607      H1615   1.084       .  S
C1608      H1616   1.084       .  S
C1609      H1617   1.087       .  S
C1609      C1610   1.350       .  D
C1610      H1618   1.084       .  S
C1611      H1619   1.087       .  S
C1611      C1612   1.347       .  D
C1612      H1620   1.085       .  S
C1621      C1629   1.489       .  S
C1621      C1622   1.404       .  A
C1621      C1626   1.409       .  A
C1622      C1623   1.396       .  A
C1622      H1631   1.084       .  S
C1623      C1624   1.401       .  A
C1623      H1632   1.084       .  S
C1624      C1627   1.487       .  S
C1624      C1625   1.409       .  A
C1625      C1626   1.404       .  A
C1625      H1633   1.082       .  S
C1626      H1634   1.081       .  S
C1627      H1635   1.087       .  S
C1627      C1628   1.346       .  D
C1628      H1636   1.086       .  S
C1629      H1637   1.087       .  S
C1629      C1630   1.349       .  D
C1630      H1638   1.084       .  S
C1639      C1647   1.484       .  S
C1639      C1640   1.406       .  A
C1639      C1644   1.404       .  A
C1640      C1641   1.399       .  A
C1640      H1649   1.083       .  S
C1641      C1642   1.404       .  A
C1641      H1650   1.081       .  S
C1642      C1645   1.483       .  S
C1642      C1643   1.405       .  A
C1643      C1644   1.396       .  A
C1643      H1651   1.084       .  S
C1644      H1652   1.081       .  S
C1645      H1653   1.087       .  S
C1645      C1646   1.352       .  D
C1646      H1654   1.084       .  S
C1647      H1655   1.087       .  S
C1647      C1648   1.352       .  D
C1648      H1656   1.084       .  S
C1657      C1665   1.483       .  S
C1657      C1658   1.401       .  A
C1657      C1662   1.409       .  A
C1658      C1659   1.395   1_655  A
C1658      H1667   1.084       .  S
C1659      C1660   1.408       .  A
C1659      H1668   1.082       .  S
C1660      C1663   1.485       .  S
C1660      C1661   1.402       .  A
C1661      C1662   1.399   1_455  A
C1661      H1669   1.083       .  S
C1662      H1670   1.081       .  S
C1663      H1671   1.087       .  S
C1663      C1664   1.343       .  D
C1664      H1672   1.085       .  S
C1665      H1673   1.087       .  S
C1665      C1666   1.344       .  D
C1666      H1674   1.085       .  S
C1675      C1683   1.492       .  S
C1675      C1676   1.410       .  A
C1675      C1680   1.403       .  A
C1676      C1677   1.408       .  A
C1676      H1685   1.082       .  S
C1677      C1678   1.410       .  A
C1677      H1686   1.081       .  S
C1678      C1681   1.494   1_545  S
C1678      C1679   1.404       .  A
C1679      C1680   1.397       .  A
C1679      H1687   1.084       .  S
C1680      H1688   1.084       .  S
C1681      H1689   1.087       .  S
C1681      C1682   1.351       .  D
C1682      H1690   1.085       .  S
C1683      H1691   1.087       .  S
C1683      C1684   1.351       .  D
C1684      H1692   1.085       .  S
C1693      C1701   1.488       .  S
C1693      C1694   1.402       .  A
C1693      C1698   1.408       .  A
C1694      C1695   1.395       .  A
C1694      H1703   1.084       .  S
C1695      C1696   1.404       .  A
C1695      H1704   1.084       .  S
C1696      C1699   1.494       .  S
C1696      C1697   1.412       .  A
C1697      C1698   1.407       .  A
C1697      H1705   1.080       .  S
C1698      H1706   1.082       .  S
C1699      H1707   1.087       .  S
C1699      C1700   1.349       .  D
C1700      H1708   1.083       .  S
C1701      H1709   1.087       .  S
C1701      C1702   1.349       .  D
C1702      H1710   1.085       .  S
C1711      C1719   1.489       .  S
C1711      C1712   1.410       .  A
C1711      C1716   1.403       .  A
C1712      C1713   1.405       .  A
C1712      H1721   1.081       .  S
C1713      C1714   1.409       .  A
C1713      H1722   1.081       .  S
C1714      C1717   1.488       .  S
C1714      C1715   1.402       .  A
C1715      C1716   1.394       .  A
C1715      H1723   1.084       .  S
C1716      H1724   1.084       .  S
C1717      H1725   1.087       .  S
C1717      C1718   1.347       .  D
C1718      H1726   1.085       .  S
C1719      H1727   1.088   1_545  S
C1719      C1720   1.349   1_545  D
C1720      H1728   1.084       .  S
C1729      C1737   1.471       .  S
C1729      C1730   1.399       .  A
C1729      C1734   1.404       .  A
C1730      C1731   1.394       .  A
C1730      H1739   1.084       .  S
C1731      C1732   1.407       .  A
C1731      H1740   1.082       .  S
C1732      C1735   1.478       .  S
C1732      C1733   1.403       .  A
C1733      C1734   1.398       .  A
C1733      H1741   1.083       .  S
C1734      H1742   1.083       .  S
C1735      H1743   1.087       .  S
C1735      C1736   1.342       .  D
C1736      H1744   1.086       .  S
C1737      H1745   1.088       .  S
C1737      C1738   1.340       .  D
C1738      H1746   1.086       .  S
C1747      C1755   1.485       .  S
C1747      C1748   1.402       .  A
C1747      C1752   1.410       .  A
C1748      C1749   1.393       .  A
C1748      H1757   1.084       .  S
C1749      C1750   1.401       .  A
C1749      H1758   1.084       .  S
C1750      C1753   1.480   1_545  S
C1750      C1751   1.406       .  A
C1751      C1752   1.400       .  A
C1751      H1759   1.082       .  S
C1752      H1760   1.080       .  S
C1753      H1761   1.088       .  S
C1753      C1754   1.345       .  D
C1754      H1762   1.085       .  S
C1755      H1763   1.087   1_655  S
C1755      C1756   1.345   1_655  D
C1756      H1764   1.083       .  S
C1765      C1773   1.487       .  S
C1765      C1766   1.409       .  A
C1765      C1770   1.402       .  A
C1766      C1767   1.403       .  A
C1766      H1775   1.081       .  S
C1767      C1768   1.409       .  A
C1767      H1776   1.080       .  S
C1768      C1771   1.487       .  S
C1768      C1769   1.402       .  A
C1769      C1770   1.393       .  A
C1769      H1777   1.084       .  S
C1770      H1778   1.084       .  S
C1771      H1779   1.087       .  S
C1771      C1772   1.347       .  D
C1772      H1780   1.084       .  S
C1773      H1781   1.087       .  S
C1773      C1774   1.348       .  D
C1774      H1782   1.084       .  S
C1783      C1791   1.482       .  S
C1783      C1784   1.403   1_565  A
C1783      C1788   1.407       .  A
C1784      C1785   1.396       .  A
C1784      H1793   1.083   1_545  S
C1785      C1786   1.402       .  A
C1785      H1794   1.083       .  S
C1786      C1789   1.481       .  S
C1786      C1787   1.407       .  A
C1787      C1788   1.397   1_545  A
C1787      H1795   1.082       .  S
C1788      H1796   1.081       .  S
C1789      H1797   1.087       .  S
C1789      C1790   1.345       .  D
C1790      H1798   1.086       .  S
C1791      H1799   1.087       .  S
C1791      C1792   1.344       .  D
C1792      H1800   1.085       .  S
C1801      C1809   1.488       .  S
C1801      C1802   1.408       .  A
C1801      C1806   1.403       .  A
C1802      C1803   1.404       .  A
C1802      H1811   1.082       .  S
C1803      C1804   1.410       .  A
C1803      H1812   1.082       .  S
C1804      C1807   1.489       .  S
C1804      C1805   1.402       .  A
C1805      C1806   1.396       .  A
C1805      H1813   1.083       .  S
C1806      H1814   1.083       .  S
C1807      H1815   1.087       .  S
C1807      C1808   1.346       .  D
C1808      H1816   1.085       .  S
C1809      H1817   1.087       .  S
C1809      C1810   1.349       .  D
C1810      H1818   1.085       .  S
C1819      C1827   1.487       .  S
C1819      C1820   1.406       .  A
C1819      C1824   1.404       .  A
C1820      C1821   1.399       .  A
C1820      H1829   1.083       .  S
C1821      C1822   1.404       .  A
C1821      H1830   1.080       .  S
C1822      C1825   1.490       .  S
C1822      C1823   1.409       .  A
C1823      C1824   1.400       .  A
C1823      H1831   1.083       .  S
C1824      H1832   1.082       .  S
C1825      H1833   1.087       .  S
C1825      C1826   1.356       .  D
C1826      H1834   1.083       .  S
C1827      H1835   1.087       .  S
C1827      C1828   1.353       .  D
C1828      H1836   1.085       .  S
C1837      C1845   1.503       .  S
C1837      C1838   1.407       .  A
C1837      C1842   1.411       .  A
C1838      C1839   1.405       .  A
C1838      H1847   1.083       .  S
C1839      C1840   1.410       .  A
C1839      H1848   1.082       .  S
C1840      C1843   1.500       .  S
C1840      C1841   1.405       .  A
C1841      C1842   1.403       .  A
C1841      H1849   1.083       .  S
C1842      H1850   1.080       .  S
C1843      H1851   1.087       .  S
C1843      C1844   1.349       .  D
C1844      H1852   1.085       .  S
C1845      H1853   1.087       .  S
C1845      C1846   1.351       .  D
C1846      H1854   1.084       .  S
C1855      C1863   1.492       .  S
C1855      C1856   1.403   1_455  A
C1855      C1860   1.407       .  A
C1856      C1857   1.403       .  A
C1856      H1865   1.083       .  S
C1857      C1858   1.412   1_655  A
C1857      H1866   1.080       .  S
C1858      C1861   1.496       .  S
C1858      C1859   1.404       .  A
C1859      C1860   1.399       .  A
C1859      H1867   1.083       .  S
C1860      H1868   1.082       .  S
C1861      H1869   1.087       .  S
C1861      C1862   1.348   1_455  D
C1862      H1870   1.083       .  S
C1863      H1871   1.087       .  S
C1863      C1864   1.346       .  D
C1864      H1872   1.086       .  S
C1873      C1881   1.492       .  S
C1873      C1874   1.405       .  A
C1873      C1878   1.407   1_655  A
C1874      C1875   1.403       .  A
C1874      H1883   1.081       .  S
C1875      C1876   1.409       .  A
C1875      H1884   1.083       .  S
C1876      C1879   1.494       .  S
C1876      C1877   1.405   1_655  A
C1877      C1878   1.398       .  A
C1877      H1885   1.080       .  S
C1878      H1886   1.083       .  S
C1879      H1887   1.087       .  S
C1879      C1880   1.355   1_655  D
C1880      H1888   1.083       .  S
C1881      H1889   1.087   1_655  S
C1881      C1882   1.355       .  D
C1882      H1890   1.084       .  S
C1891      C1899   1.482       .  S
C1891      C1892   1.403       .  A
C1891      C1896   1.405       .  A
C1892      C1893   1.399       .  A
C1892      H1901   1.083       .  S
C1893      C1894   1.407       .  A
C1893      H1902   1.082       .  S
C1894      C1897   1.485       .  S
C1894      C1895   1.405       .  A
C1895      C1896   1.401       .  A
C1895      H1903   1.083       .  S
C1896      H1904   1.083       .  S
C1897      H1905   1.087       .  S
C1897      C1898   1.347       .  D
C1898      H1906   1.086       .  S
C1899      H1907   1.088       .  S
C1899      C1900   1.344       .  D
C1900      H1908   1.086       .  S
C1909      C1917   1.489       .  S
C1909      C1910   1.403       .  A
C1909      C1914   1.410       .  A
C1910      C1911   1.394       .  A
C1910      H1919   1.084       .  S
C1911      C1912   1.403       .  A
C1911      H1920   1.084       .  S
C1912      C1915   1.488       .  S
C1912      C1913   1.409       .  A
C1913      C1914   1.406       .  A
C1913      H1921   1.081       .  S
C1914      H1922   1.081       .  S
C1915      H1923   1.088       .  S
C1915      C1916   1.350       .  D
C1916      H1924   1.085       .  S
C1917      H1925   1.087       .  S
C1917      C1918   1.349       .  D
C1918      H1926   1.085       .  S
C1927      C1935   1.490       .  S
C1927      C1928   1.405       .  A
C1927      C1932   1.410       .  A
C1928      C1929   1.400       .  A
C1928      H1937   1.083       .  S
C1929      C1930   1.403       .  A
C1929      H1938   1.083   1_565  S
C1930      C1933   1.485       .  S
C1930      C1931   1.405       .  A
C1931      C1932   1.395       .  A
C1931      H1939   1.082       .  S
C1932      H1940   1.079       .  S
C1933      H1941   1.087   1_565  S
C1933      C1934   1.345       .  D
C1934      H1942   1.085       .  S
C1935      H1943   1.087       .  S
C1935      C1936   1.345       .  D
C1936      H1944   1.083       .  S
C1945      C1953   1.485       .  S
C1945      C1946   1.406       .  A
C1945      C1950   1.405   1_545  A
C1946      C1947   1.395       .  A
C1946      H1955   1.084       .  S
C1947      C1948   1.404   1_545  A
C1947      H1956   1.080       .  S
C1948      C1951   1.486       .  S
C1948      C1949   1.407       .  A
C1949      C1950   1.400       .  A
C1949      H1957   1.083       .  S
C1950      H1958   1.081       .  S
C1951      H1959   1.087       .  S
C1951      C1952   1.352   1_565  D
C1952      H1960   1.084       .  S
C1953      H1961   1.087       .  S
C1953      C1954   1.353   1_545  D
C1954      H1962   1.084       .  S
C1963      C1971   1.495       .  S
C1963      C1964   1.406       .  A
C1963      C1968   1.408       .  A
C1964      C1965   1.406       .  A
C1964      H1973   1.083       .  S
C1965      C1966   1.409       .  A
C1965      H1974   1.082       .  S
C1966      C1969   1.488       .  S
C1966      C1967   1.401       .  A
C1967      C1968   1.395       .  A
C1967      H1975   1.084       .  S
C1968      H1976   1.082       .  S
C1969      H1977   1.087       .  S
C1969      C1970   1.347       .  D
C1970      H1978   1.086       .  S
C1971      H1979   1.087       .  S
C1971      C1972   1.349       .  D
C1972      H1980   1.085       .  S
C1981      C1989   1.488       .  S
C1981      C1982   1.401       .  A
C1981      C1986   1.411       .  A
C1982      C1983   1.389       .  A
C1982      H1991   1.084       .  S
C1983      C1984   1.402       .  A
C1983      H1992   1.084       .  S
C1984      C1987   1.486       .  S
C1984      C1985   1.408       .  A
C1985      C1986   1.407       .  A
C1985      H1993   1.081       .  S
C1986      H1994   1.080       .  S
C1987      H1995   1.087       .  S
C1987      C1988   1.351       .  D
C1988      H1996   1.084       .  S
C1989      H1997   1.087       .  S
C1989      C1990   1.348       .  D
C1990      H1998   1.084       .  S
C1999      C2007   1.495       .  S
C1999      C2000   1.410       .  A
C1999      C2004   1.404       .  A
C2000      C2001   1.407       .  A
C2000      H2009   1.081       .  S
C2001      C2002   1.410       .  A
C2001      H2010   1.081       .  S
C2002      C2005   1.497       .  S
C2002      C2003   1.405       .  A
C2003      C2004   1.398       .  A
C2003      H2011   1.084       .  S
C2004      H2012   1.084       .  S
C2005      H2013   1.087       .  S
C2005      C2006   1.352       .  D
C2006      H2014   1.084       .  S
C2007      H2015   1.087       .  S
C2007      C2008   1.352       .  D
C2008      H2016   1.085       .  S
C2017      C2025   1.493       .  S
C2017      C2018   1.406       .  A
C2017      C2022   1.409       .  A
C2018      C2019   1.405       .  A
C2018      H2027   1.083       .  S
C2019      C2020   1.407       .  A
C2019      H2028   1.083       .  S
C2020      C2023   1.485       .  S
C2020      C2021   1.401       .  A
C2021      C2022   1.396       .  A
C2021      H2029   1.084       .  S
C2022      H2030   1.082       .  S
C2023      H2031   1.087       .  S
C2023      C2024   1.347       .  D
C2024      H2032   1.086       .  S
C2025      H2033   1.086       .  S
C2025      C2026   1.347       .  D
C2026      H2034   1.086       .  S
C2035      C2043   1.492       .  S
C2035      C2036   1.410       .  A
C2035      C2040   1.403       .  A
C2036      C2037   1.406       .  A
C2036      H2045   1.081       .  S
C2037      C2038   1.410       .  A
C2037      H2046   1.080       .  S
C2038      C2041   1.493       .  S
C2038      C2039   1.404       .  A
C2039      C2040   1.395       .  A
C2039      H2047   1.084       .  S
C2040      H2048   1.084       .  S
C2041      H2049   1.087       .  S
C2041      C2042   1.351       .  D
C2042      H2050   1.083       .  S
C2043      H2051   1.087       .  S
C2043      C2044   1.351       .  D
C2044      H2052   1.084       .  S
C2053      C2061   1.488       .  S
C2053      C2054   1.403       .  A
C2053      C2058   1.409       .  A
C2054      C2055   1.396       .  A
C2054      H2063   1.083       .  S
C2055      C2056   1.402       .  A
C2055      H2064   1.083       .  S
C2056      C2059   1.486       .  S
C2056      C2057   1.408       .  A
C2057      C2058   1.402       .  A
C2057      H2065   1.082       .  S
C2058      H2066   1.081       .  S
C2059      H2067   1.087       .  S
C2059      C2060   1.348       .  D
C2060      H2068   1.085       .  S
C2061      H2069   1.087       .  S
C2061      C2062   1.348       .  D
C2062      H2070   1.085       .  S
C2071      C2079   1.495       .  S
C2071      C2072   1.406       .  A
C2071      C2076   1.409       .  A
C2072      C2073   1.404       .  A
C2072      H2081   1.083       .  S
C2073      C2074   1.408       .  A
C2073      H2082   1.082       .  S
C2074      C2077   1.491       .  S
C2074      C2075   1.403       .  A
C2075      C2076   1.398       .  A
C2075      H2083   1.083       .  S
C2076      H2084   1.081       .  S
C2077      H2085   1.087       .  S
C2077      C2078   1.348       .  D
C2078      H2086   1.085       .  S
C2079      H2087   1.087       .  S
C2079      C2080   1.349       .  D
C2080      H2088   1.084       .  S
C2089      C2097   1.490       .  S
C2089      C2090   1.402       .  A
C2089      C2094   1.408       .  A
C2090      C2091   1.396       .  A
C2090      H2099   1.084       .  S
C2091      C2092   1.410       .  A
C2091      H2100   1.080       .  S
C2092      C2095   1.497       .  S
C2092      C2093   1.407       .  A
C2093      C2094   1.405       .  A
C2093      H2101   1.083       .  S
C2094      H2102   1.082       .  S
C2095      H2103   1.087       .  S
C2095      C2096   1.347       .  D
C2096      H2104   1.083       .  S
C2097      H2105   1.087       .  S
C2097      C2098   1.349       .  D
C2098      H2106   1.085       .  S
C2107      C2115   1.488       .  S
C2107      C2108   1.410       .  A
C2107      C2112   1.402       .  A
C2108      C2109   1.406       .  A
C2108      H2117   1.081       .  S
C2109      C2110   1.409       .  A
C2109      H2118   1.081       .  S
C2110      C2113   1.488       .  S
C2110      C2111   1.402       .  A
C2111      C2112   1.393       .  A
C2111      H2119   1.084       .  S
C2112      H2120   1.084       .  S
C2113      H2121   1.087       .  S
C2113      C2114   1.348       .  D
C2114      H2122   1.085       .  S
C2115      H2123   1.087       .  S
C2115      C2116   1.348       .  D
C2116      H2124   1.085       .  S
C2125      C2133   1.486       .  S
C2125      C2126   1.407       .  A
C2125      C2130   1.404       .  A
C2126      C2127   1.404       .  A
C2126      H2135   1.081       .  S
C2127      C2128   1.410       .  A
C2127      H2136   1.081       .  S
C2128      C2131   1.486       .  S
C2128      C2129   1.401       .  A
C2129      C2130   1.394       .  A
C2129      H2137   1.084       .  S
C2130      H2138   1.084       .  S
C2131      H2139   1.087       .  S
C2131      C2132   1.346       .  D
C2132      H2140   1.085       .  S
C2133      H2141   1.087       .  S
C2133      C2134   1.351       .  D
C2134      H2142   1.085       .  S
C2143      C2151   1.491       .  S
C2143      C2144   1.405       .  A
C2143      C2148   1.410       .  A
C2144      C2145   1.402       .  A
C2144      H2153   1.083       .  S
C2145      C2146   1.407       .  A
C2145      H2154   1.083       .  S
C2146      C2149   1.480       .  S
C2146      C2147   1.399       .  A
C2147      C2148   1.395       .  A
C2147      H2155   1.083       .  S
C2148      H2156   1.081       .  S
C2149      H2157   1.087       .  S
C2149      C2150   1.342       .  D
C2150      H2158   1.087       .  S
C2151      H2159   1.087       .  S
C2151      C2152   1.345       .  D
C2152      H2160   1.084       .  S
C2161      C2169   1.495       .  S
C2161      C2162   1.408       .  A
C2161      C2166   1.405       .  A
C2162      C2163   1.401       .  A
C2162      H2171   1.083       .  S
C2163      C2164   1.405       .  A
C2163      H2172   1.080       .  S
C2164      C2167   1.496       .  S
C2164      C2165   1.409       .  A
C2165      C2166   1.403       .  A
C2165      H2173   1.083       .  S
C2166      H2174   1.080       .  S
C2167      H2175   1.087       .  S
C2167      C2168   1.356       .  D
C2168      H2176   1.083       .  S
C2169      H2177   1.087       .  S
C2169      C2170   1.357       .  D
C2170      H2178   1.084       .  S
C2179      C2187   1.481       .  S
C2179      C2180   1.402       .  A
C2179      C2184   1.406       .  A
C2180      C2181   1.398       .  A
C2180      H2189   1.083       .  S
C2181      C2182   1.406       .  A
C2181      H2190   1.083       .  S
C2182      C2185   1.483       .  S
C2182      C2183   1.403       .  A
C2183      C2184   1.401       .  A
C2183      H2191   1.083       .  S
C2184      H2192   1.083       .  S
C2185      H2193   1.087       .  S
C2185      C2186   1.343       .  D
C2186      H2194   1.087       .  S
C2187      H2195   1.087       .  S
C2187      C2188   1.346       .  D
C2188      H2196   1.086   1_455  S
C2197      C2205   1.495       .  S
C2197      C2198   1.409       .  A
C2197      C2202   1.405       .  A
C2198      C2199   1.401       .  A
C2198      H2207   1.083       .  S
C2199      C2200   1.405       .  A
C2199      H2208   1.080       .  S
C2200      C2203   1.497       .  S
C2200      C2201   1.411       .  A
C2201      C2202   1.404       .  A
C2201      H2209   1.083       .  S
C2202      H2210   1.081       .  S
C2203      H2211   1.087       .  S
C2203      C2204   1.358       .  D
C2204      H2212   1.083       .  S
C2205      H2213   1.087       .  S
C2205      C2206   1.360       .  D
C2206      H2214   1.084       .  S
C2215      C2223   1.493       .  S
C2215      C2216   1.402       .  A
C2215      C2220   1.411       .  A
C2216      C2217   1.396       .  A
C2216      H2225   1.084       .  S
C2217      C2218   1.404       .  A
C2217      H2226   1.084       .  S
C2218      C2221   1.493       .  S
C2218      C2219   1.410       .  A
C2219      C2220   1.406       .  A
C2219      H2227   1.080       .  S
C2220      H2228   1.081       .  S
C2221      H2229   1.087       .  S
C2221      C2222   1.351       .  D
C2222      H2230   1.084       .  S
C2223      H2231   1.087       .  S
C2223      C2224   1.348       .  D
C2224      H2232   1.084       .  S
C2233      C2241   1.473       .  S
C2233      C2234   1.399       .  A
C2233      C2238   1.405       .  A
C2234      C2235   1.392       .  A
C2234      H2243   1.084       .  S
C2235      C2236   1.405       .  A
C2235      H2244   1.083   1_655  S
C2236      C2239   1.478   1_655  S
C2236      C2237   1.404       .  A
C2237      C2238   1.401       .  A
C2237      H2245   1.083       .  S
C2238      H2246   1.083       .  S
C2239      H2247   1.087       .  S
C2239      C2240   1.343       .  D
C2240      H2248   1.087       .  S
C2241      H2249   1.088       .  S
C2241      C2242   1.342       .  D
C2242      H2250   1.086       .  S
C2251      C2259   1.478       .  S
C2251      C2252   1.400       .  A
C2251      C2256   1.407       .  A
C2252      C2253   1.397       .  A
C2252      H2261   1.083       .  S
C2253      C2254   1.406       .  A
C2253      H2262   1.083       .  S
C2254      C2257   1.477       .  S
C2254      C2255   1.400       .  A
C2255      C2256   1.398       .  A
C2255      H2263   1.083       .  S
C2256      H2264   1.083       .  S
C2257      H2265   1.086   1_565  S
C2257      C2258   1.340       .  D
C2258      H2266   1.088       .  S
C2259      H2267   1.087       .  S
C2259      C2260   1.342       .  D
C2260      H2268   1.087       .  S
C2269      C2277   1.479       .  S
C2269      C2270   1.405       .  A
C2269      C2274   1.405       .  A
C2270      C2271   1.402       .  A
C2270      H2279   1.083       .  S
C2271      C2272   1.405       .  A
C2271      H2280   1.083       .  S
C2272      C2275   1.473       .  S
C2272      C2273   1.399       .  A
C2273      C2274   1.393       .  A
C2273      H2281   1.084       .  S
C2274      H2282   1.083       .  S
C2275      H2283   1.088       .  S
C2275      C2276   1.342       .  D
C2276      H2284   1.086       .  S
C2277      H2285   1.087       .  S
C2277      C2278   1.344       .  D
C2278      H2286   1.087       .  S
C2287      C2295   1.489       .  S
C2287      C2288   1.408       .  A
C2287      C2292   1.404       .  A
C2288      C2289   1.404       .  A
C2288      H2297   1.081       .  S
C2289      C2290   1.411       .  A
C2289      H2298   1.080       .  S
C2290      C2293   1.491       .  S
C2290      C2291   1.402       .  A
C2291      C2292   1.395       .  A
C2291      H2299   1.084       .  S
C2292      H2300   1.084       .  S
C2293      H2301   1.087       .  S
C2293      C2294   1.347       .  D
C2294      H2302   1.084       .  S
C2295      H2303   1.087       .  S
C2295      C2296   1.350   1_655  D
C2296      H2304   1.084       .  S
C2305      C2313   1.488       .  S
C2305      C2306   1.407       .  A
C2305      C2310   1.405       .  A
C2306      C2307   1.398       .  A
C2306      H2315   1.083       .  S
C2307      C2308   1.405       .  A
C2307      H2316   1.080       .  S
C2308      C2311   1.487       .  S
C2308      C2309   1.406       .  A
C2309      C2310   1.397       .  A
C2309      H2317   1.084       .  S
C2310      H2318   1.079       .  S
C2311      H2319   1.087       .  S
C2311      C2312   1.352       .  D
C2312      H2320   1.083       .  S
C2313      H2321   1.087       .  S
C2313      C2314   1.352       .  D
C2314      H2322   1.083       .  S
C2323      C2331   1.484       .  S
C2323      C2324   1.404       .  A
C2323      C2328   1.406       .  A
C2324      C2325   1.401       .  A
C2324      H2333   1.083       .  S
C2325      C2326   1.405       .  A
C2325      H2334   1.083       .  S
C2326      C2329   1.480       .  S
C2326      C2327   1.402       .  A
C2327      C2328   1.398       .  A
C2327      H2335   1.083       .  S
C2328      H2336   1.083       .  S
C2329      H2337   1.088       .  S
C2329      C2330   1.344       .  D
C2330      H2338   1.086       .  S
C2331      H2339   1.087       .  S
C2331      C2332   1.347       .  D
C2332      H2340   1.086       .  S
C2341      C2349   1.493       .  S
C2341      C2342   1.403       .  A
C2341      C2346   1.410       .  A
C2342      C2343   1.399       .  A
C2342      H2351   1.084       .  S
C2343      C2344   1.410       .  A
C2343      H2352   1.082       .  S
C2344      C2347   1.495       .  S
C2344      C2345   1.403       .  A
C2345      C2346   1.404       .  A
C2345      H2353   1.083       .  S
C2346      H2354   1.081       .  S
C2347      H2355   1.086       .  S
C2347      C2348   1.345       .  D
C2348      H2356   1.086       .  S
C2349      H2357   1.087       .  S
C2349      C2350   1.349       .  D
C2350      H2358   1.085       .  S
C2359      C2367   1.486       .  S
C2359      C2360   1.401       .  A
C2359      C2364   1.409       .  A
C2360      C2361   1.392       .  A
C2360      H2369   1.084       .  S
C2361      C2362   1.403       .  A
C2361      H2370   1.084       .  S
C2362      C2365   1.488       .  S
C2362      C2363   1.410       .  A
C2363      C2364   1.405       .  A
C2363      H2371   1.081       .  S
C2364      H2372   1.081       .  S
C2365      H2373   1.087       .  S
C2365      C2366   1.349       .  D
C2366      H2374   1.084       .  S
C2367      H2375   1.087       .  S
C2367      C2368   1.348       .  D
C2368      H2376   1.085       .  S
C2377      C2385   1.473       .  S
C2377      C2378   1.400       .  A
C2377      C2382   1.405       .  A
C2378      C2379   1.394       .  A
C2378      H2387   1.084       .  S
C2379      C2380   1.407       .  A
C2379      H2388   1.082       .  S
C2380      C2383   1.479   1_545  S
C2380      C2381   1.402       .  A
C2381      C2382   1.398       .  A
C2381      H2389   1.083       .  S
C2382      H2390   1.083       .  S
C2383      H2391   1.087       .  S
C2383      C2384   1.342       .  D
C2384      H2392   1.086       .  S
C2385      H2393   1.088   1_655  S
C2385      C2386   1.341   1_655  D
C2386      H2394   1.086   1_455  S
C2395      C2403   1.491       .  S
C2395      C2396   1.403       .  A
C2395      C2400   1.410       .  A
C2396      C2397   1.398       .  A
C2396      H2405   1.083       .  S
C2397      C2398   1.407       .  A
C2397      H2406   1.082       .  S
C2398      C2401   1.489       .  S
C2398      C2399   1.403       .  A
C2399      C2400   1.401       .  A
C2399      H2407   1.083       .  S
C2400      H2408   1.081       .  S
C2401      H2409   1.087       .  S
C2401      C2402   1.345       .  D
C2402      H2410   1.086       .  S
C2403      H2411   1.087       .  S
C2403      C2404   1.347       .  D
C2404      H2412   1.084       .  S
C2413      C2421   1.484       .  S
C2413      C2414   1.406       .  A
C2413      C2418   1.404       .  A
C2414      C2415   1.395       .  A
C2414      H2423   1.084       .  S
C2415      C2416   1.405       .  A
C2415      H2424   1.079       .  S
C2416      C2419   1.487       .  S
C2416      C2417   1.407       .  A
C2417      C2418   1.399       .  A
C2417      H2425   1.083       .  S
C2418      H2426   1.080       .  S
C2419      H2427   1.087       .  S
C2419      C2420   1.350       .  D
C2420      H2428   1.083       .  S
C2421      H2429   1.087       .  S
C2421      C2422   1.353       .  D
C2422      H2430   1.083       .  S
C2431      C2439   1.489   1_655  S
C2431      C2432   1.401       .  A
C2431      C2436   1.411       .  A
C2432      C2433   1.392       .  A
C2432      H2441   1.084       .  S
C2433      C2434   1.409       .  A
C2433      H2442   1.081       .  S
C2434      C2437   1.489   1_545  S
C2434      C2435   1.403       .  A
C2435      C2436   1.403       .  A
C2435      H2443   1.083       .  S
C2436      H2444   1.080       .  S
C2437      H2445   1.087       .  S
C2437      C2438   1.343       .  D
C2438      H2446   1.084   1_565  S
C2439      H2447   1.087       .  S
C2439      C2440   1.345       .  D
C2440      H2448   1.083       .  S
C2449      C2457   1.483       .  S
C2449      C2450   1.407       .  A
C2449      C2454   1.401       .  A
C2450      C2451   1.404       .  A
C2450      H2459   1.082       .  S
C2451      C2452   1.411       .  A
C2451      H2460   1.080       .  S
C2452      C2455   1.488       .  S
C2452      C2453   1.402       .  A
C2453      C2454   1.392       .  A
C2453      H2461   1.084       .  S
C2454      H2462   1.084       .  S
C2455      H2463   1.087       .  S
C2455      C2456   1.346       .  D
C2456      H2464   1.083       .  S
C2457      H2465   1.088       .  S
C2457      C2458   1.347       .  D
C2458      H2466   1.085       .  S
C2467      C2475   1.499   1_545  S
C2467      C2468   1.406       .  A
C2467      C2472   1.410       .  A
C2468      C2469   1.406       .  A
C2468      H2477   1.083       .  S
C2469      C2470   1.409       .  A
C2469      H2478   1.082       .  S
C2470      C2473   1.490       .  S
C2470      C2471   1.402       .  A
C2471      C2472   1.397       .  A
C2471      H2479   1.084       .  S
C2472      H2480   1.081       .  S
C2473      H2481   1.087       .  S
C2473      C2474   1.349       .  D
C2474      H2482   1.086       .  S
C2475      H2483   1.086       .  S
C2475      C2476   1.347       .  D
C2476      H2484   1.085       .  S
C2485      C2493   1.492       .  S
C2485      C2486   1.404       .  A
C2485      C2490   1.407       .  A
C2486      C2487   1.403       .  A
C2486      H2495   1.083       .  S
C2487      C2488   1.410       .  A
C2487      H2496   1.081       .  S
C2488      C2491   1.491       .  S
C2488      C2489   1.403       .  A
C2489      C2490   1.397       .  A
C2489      H2497   1.083       .  S
C2490      H2498   1.082       .  S
C2491      H2499   1.087       .  S
C2491      C2492   1.347       .  D
C2492      H2500   1.084       .  S
C2493      H2501   1.087       .  S
C2493      C2494   1.347       .  D
C2494      H2502   1.086       .  S
C2503      C2511   1.487       .  S
C2503      C2504   1.402       .  A
C2503      C2508   1.408       .  A
C2504      C2505   1.398   1_565  A
C2504      H2513   1.083       .  S
C2505      C2506   1.408       .  A
C2505      H2514   1.082       .  S
C2506      C2509   1.487       .  S
C2506      C2507   1.403       .  A
C2507      C2508   1.400   1_545  A
C2507      H2515   1.083       .  S
C2508      H2516   1.082       .  S
C2509      H2517   1.087       .  S
C2509      C2510   1.346       .  D
C2510      H2518   1.085       .  S
C2511      H2519   1.087       .  S
C2511      C2512   1.345       .  D
C2512      H2520   1.086       .  S
C2521      C2529   1.489       .  S
C2521      C2522   1.407       .  A
C2521      C2526   1.405       .  A
C2522      C2523   1.398       .  A
C2522      H2531   1.083       .  S
C2523      C2524   1.405       .  A
C2523      H2532   1.080       .  S
C2524      C2527   1.489       .  S
C2524      C2525   1.407       .  A
C2525      C2526   1.399       .  A
C2525      H2533   1.084       .  S
C2526      H2534   1.080       .  S
C2527      H2535   1.087       .  S
C2527      C2528   1.354       .  D
C2528      H2536   1.083       .  S
C2529      H2537   1.087       .  S
C2529      C2530   1.353       .  D
C2530      H2538   1.083       .  S
C2539      C2547   1.495       .  S
C2539      C2540   1.408       .  A
C2539      C2544   1.408       .  A
C2540      C2541   1.395       .  A
C2540      H2549   1.078       .  S
C2541      C2542   1.406       .  A
C2541      H2550   1.082       .  S
C2542      C2545   1.490       .  S
C2542      C2543   1.403       .  A
C2543      C2544   1.403       .  A
C2543      H2551   1.083       .  S
C2544      H2552   1.083       .  S
C2545      H2553   1.087       .  S
C2545      C2546   1.346       .  D
C2546      H2554   1.086       .  S
C2547      H2555   1.087       .  S
C2547      C2548   1.351       .  D
C2548      H2556   1.081       .  S
C2557      C2565   1.500       .  S
C2557      C2558   1.406       .  A
C2557      C2562   1.409       .  A
C2558      C2559   1.407       .  A
C2558      H2567   1.083       .  S
C2559      C2560   1.409       .  A
C2559      H2568   1.082       .  S
C2560      C2563   1.495       .  S
C2560      C2561   1.404       .  A
C2561      C2562   1.400       .  A
C2561      H2569   1.083       .  S
C2562      H2570   1.082       .  S
C2563      H2571   1.087       .  S
C2563      C2564   1.351       .  D
C2564      H2572   1.085       .  S
C2565      H2573   1.086       .  S
C2565      C2566   1.349       .  D
C2566      H2574   1.085       .  S
C2575      C2583   1.489       .  S
C2575      C2576   1.409       .  A
C2575      C2580   1.401       .  A
C2576      C2577   1.408       .  A
C2576      H2585   1.082       .  S
C2577      C2578   1.411       .  A
C2577      H2586   1.080       .  S
C2578      C2581   1.495       .  S
C2578      C2579   1.404       .  A
C2579      C2580   1.395       .  A
C2579      H2587   1.084       .  S
C2580      H2588   1.084       .  S
C2581      H2589   1.087   1_455  S
C2581      C2582   1.351   1_455  D
C2582      H2590   1.084       .  S
C2583      H2591   1.087       .  S
C2583      C2584   1.348   1_565  D
C2584      H2592   1.086   1_545  S
C2593      C2601   1.493       .  S
C2593      C2594   1.403       .  A
C2593      C2598   1.408       .  A
C2594      C2595   1.402       .  A
C2594      H2603   1.083       .  S
C2595      C2596   1.406       .  A
C2595      H2604   1.083       .  S
C2596      C2599   1.498       .  S
C2596      C2597   1.411       .  A
C2597      C2598   1.399       .  A
C2597      H2605   1.078       .  S
C2598      H2606   1.081       .  S
C2599      H2607   1.087       .  S
C2599      C2600   1.348       .  D
C2600      H2608   1.081       .  S
C2601      H2609   1.087       .  S
C2601      C2602   1.346       .  D
C2602      H2610   1.085       .  S
C2611      C2619   1.495   1_565  S
C2611      C2612   1.404       .  A
C2611      C2616   1.410       .  A
C2612      C2613   1.398       .  A
C2612      H2621   1.083       .  S
C2613      C2614   1.404       .  A
C2613      H2622   1.084       .  S
C2614      C2617   1.494       .  S
C2614      C2615   1.410       .  A
C2615      C2616   1.405       .  A
C2615      H2623   1.081       .  S
C2616      H2624   1.080       .  S
C2617      H2625   1.087       .  S
C2617      C2618   1.351       .  D
C2618      H2626   1.084       .  S
C2619      H2627   1.087       .  S
C2619      C2620   1.350       .  D
C2620      H2628   1.084       .  S
C2629      C2637   1.476       .  S
C2629      C2630   1.402       .  A
C2629      C2634   1.404       .  A
C2630      C2631   1.398       .  A
C2630      H2639   1.084       .  S
C2631      C2632   1.406       .  A
C2631      H2640   1.083       .  S
C2632      C2635   1.480       .  S
C2632      C2633   1.404       .  A
C2633      C2634   1.399       .  A
C2633      H2641   1.083       .  S
C2634      H2642   1.083       .  S
C2635      H2643   1.087       .  S
C2635      C2636   1.346       .  D
C2636      H2644   1.086       .  S
C2637      H2645   1.088       .  S
C2637      C2638   1.343       .  D
C2638      H2646   1.086       .  S
C2647      C2655   1.491       .  S
C2647      C2648   1.407       .  A
C2647      C2652   1.405       .  A
C2648      C2649   1.401       .  A
C2648      H2657   1.083       .  S
C2649      C2650   1.406       .  A
C2649      H2658   1.081       .  S
C2650      C2653   1.493       .  S
C2650      C2651   1.408       .  A
C2651      C2652   1.402       .  A
C2651      H2659   1.083       .  S
C2652      H2660   1.081       .  S
C2653      H2661   1.087       .  S
C2653      C2654   1.355       .  D
C2654      H2662   1.084       .  S
C2655      H2663   1.087       .  S
C2655      C2656   1.355       .  D
C2656      H2664   1.084       .  S
C2665      C2673   1.489       .  S
C2665      C2666   1.405       .  A
C2665      C2670   1.407       .  A
C2666      C2667   1.402       .  A
C2666      H2675   1.083       .  S
C2667      C2668   1.407       .  A
C2667      H2676   1.083       .  S
C2668      C2671   1.489       .  S
C2668      C2669   1.404       .  A
C2669      C2670   1.402       .  A
C2669      H2677   1.083       .  S
C2670      H2678   1.082       .  S
C2671      H2679   1.087       .  S
C2671      C2672   1.346       .  D
C2672      H2680   1.087       .  S
C2673      H2681   1.087       .  S
C2673      C2674   1.349       .  D
C2674      H2682   1.086   1_655  S
C2683      C2691   1.485       .  S
C2683      C2684   1.400       .  A
C2683      C2688   1.409       .  A
C2684      C2685   1.392   1_565  A
C2684      H2693   1.084       .  S
C2685      C2686   1.408       .  A
C2685      H2694   1.082       .  S
C2686      C2689   1.491       .  S
C2686      C2687   1.406   1_545  A
C2687      C2688   1.407       .  A
C2687      H2695   1.083   1_565  S
C2688      H2696   1.082       .  S
C2689      H2697   1.087       .  S
C2689      C2690   1.345       .  D
C2690      H2698   1.086       .  S
C2691      H2699   1.087       .  S
C2691      C2692   1.346       .  D
C2692      H2700   1.086       .  S
C2701      C2709   1.488       .  S
C2701      C2702   1.410       .  A
C2701      C2706   1.402       .  A
C2702      C2703   1.405       .  A
C2702      H2711   1.081       .  S
C2703      C2704   1.408       .  A
C2703      H2712   1.081       .  S
C2704      C2707   1.487       .  S
C2704      C2705   1.403       .  A
C2705      C2706   1.393       .  A
C2705      H2713   1.084       .  S
C2706      H2714   1.084       .  S
C2707      H2715   1.087       .  S
C2707      C2708   1.349       .  D
C2708      H2716   1.085       .  S
C2709      H2717   1.087       .  S
C2709      C2710   1.348       .  D
C2710      H2718   1.084       .  S
C2719      C2727   1.482       .  S
C2719      C2720   1.403       .  A
C2719      C2724   1.406       .  A
C2720      C2721   1.398       .  A
C2720      H2729   1.083       .  S
C2721      C2722   1.406       .  A
C2721      H2730   1.083       .  S
C2722      C2725   1.483       .  S
C2722      C2723   1.404       .  A
C2723      C2724   1.400       .  A
C2723      H2731   1.083       .  S
C2724      H2732   1.083       .  S
C2725      H2733   1.087       .  S
C2725      C2726   1.347       .  D
C2726      H2734   1.086       .  S
C2727      H2735   1.088       .  S
C2727      C2728   1.345       .  D
C2728      H2736   1.086       .  S
C2737      C2745   1.490       .  S
C2737      C2738   1.403       .  A
C2737      C2742   1.408       .  A
C2738      C2739   1.399       .  A
C2738      H2747   1.083       .  S
C2739      C2740   1.410       .  A
C2739      H2748   1.082       .  S
C2740      C2743   1.496       .  S
C2740      C2741   1.405       .  A
C2741      C2742   1.404       .  A
C2741      H2749   1.083       .  S
C2742      H2750   1.082       .  S
C2743      H2751   1.087       .  S
C2743      C2744   1.346       .  D
C2744      H2752   1.086       .  S
C2745      H2753   1.087       .  S
C2745      C2746   1.348       .  D
C2746      H2754   1.086       .  S
C2755      C2763   1.482   1_455  S
C2755      C2756   1.400       .  A
C2755      C2760   1.408       .  A
C2756      C2757   1.396       .  A
C2756      H2765   1.083       .  S
C2757      C2758   1.410       .  A
C2757      H2766   1.082       .  S
C2758      C2761   1.486       .  S
C2758      C2759   1.402       .  A
C2759      C2760   1.399       .  A
C2759      H2767   1.083       .  S
C2760      H2768   1.082       .  S
C2761      H2769   1.087       .  S
C2761      C2762   1.343       .  D
C2762      H2770   1.085       .  S
C2763      H2771   1.087       .  S
C2763      C2764   1.343       .  D
C2764      H2772   1.086       .  S
C2773      C2781   1.481       .  S
C2773      C2774   1.404       .  A
C2773      C2778   1.406       .  A
C2774      C2775   1.401       .  A
C2774      H2783   1.083       .  S
C2775      C2776   1.405       .  A
C2775      H2784   1.083       .  S
C2776      C2779   1.476       .  S
C2776      C2777   1.401       .  A
C2777      C2778   1.396       .  A
C2777      H2785   1.084       .  S
C2778      H2786   1.083       .  S
C2779      H2787   1.088       .  S
C2779      C2780   1.344       .  D
C2780      H2788   1.086       .  S
C2781      H2789   1.087       .  S
C2781      C2782   1.345       .  D
C2782      H2790   1.087       .  S
C2791      C2799   1.488       .  S
C2791      C2792   1.408       .  A
C2791      C2796   1.403       .  A
C2792      C2793   1.405       .  A
C2792      H2801   1.081       .  S
C2793      C2794   1.410       .  A
C2793      H2802   1.081       .  S
C2794      C2797   1.490       .  S
C2794      C2795   1.403       .  A
C2795      C2796   1.394       .  A
C2795      H2803   1.084       .  S
C2796      H2804   1.084       .  S
C2797      H2805   1.087       .  S
C2797      C2798   1.347   1_455  D
C2798      H2806   1.084       .  S
C2799      H2807   1.088       .  S
C2799      C2800   1.349       .  D
C2800      H2808   1.085       .  S
C2809      C2817   1.485       .  S
C2809      C2810   1.407       .  A
C2809      C2814   1.402       .  A
C2810      C2811   1.403       .  A
C2810      H2819   1.082       .  S
C2811      C2812   1.410       .  A
C2811      H2820   1.080       .  S
C2812      C2815   1.491       .  S
C2812      C2813   1.403       .  A
C2813      C2814   1.395       .  A
C2813      H2821   1.084       .  S
C2814      H2822   1.084       .  S
C2815      H2823   1.087       .  S
C2815      C2816   1.348       .  D
C2816      H2824   1.084       .  S
C2817      H2825   1.087       .  S
C2817      C2818   1.349       .  D
C2818      H2826   1.085       .  S
C2827      C2835   1.489       .  S
C2827      C2828   1.409       .  A
C2827      C2832   1.403       .  A
C2828      C2829   1.407       .  A
C2828      H2837   1.081       .  S
C2829      C2830   1.410       .  A
C2829      H2838   1.081       .  S
C2830      C2833   1.490   1_565  S
C2830      C2831   1.402       .  A
C2831      C2832   1.393       .  A
C2831      H2839   1.084       .  S
C2832      H2840   1.084       .  S
C2833      H2841   1.087       .  S
C2833      C2834   1.349       .  D
C2834      H2842   1.085       .  S
C2835      H2843   1.087       .  S
C2835      C2836   1.350       .  D
C2836      H2844   1.085       .  S
C2845      C2853   1.486       .  S
C2845      C2846   1.408       .  A
C2845      C2850   1.404       .  A
C2846      C2847   1.399       .  A
C2846      H2855   1.083       .  S
C2847      C2848   1.403       .  A
C2847      H2856   1.081       .  S
C2848      C2851   1.483       .  S
C2848      C2849   1.406       .  A
C2849      C2850   1.396       .  A
C2849      H2857   1.084       .  S
C2850      H2858   1.080       .  S
C2851      H2859   1.087       .  S
C2851      C2852   1.354       .  D
C2852      H2860   1.084       .  S
C2853      H2861   1.087       .  S
C2853      C2854   1.353       .  D
C2854      H2862   1.083       .  S
C2863      C2871   1.493       .  S
C2863      C2864   1.406       .  A
C2863      C2868   1.407       .  A
C2864      C2865   1.405       .  A
C2864      H2873   1.083       .  S
C2865      C2866   1.408       .  A
C2865      H2874   1.082       .  S
C2866      C2869   1.491       .  S
C2866      C2867   1.404       .  A
C2867      C2868   1.400       .  A
C2867      H2875   1.083       .  S
C2868      H2876   1.082       .  S
C2869      H2877   1.087       .  S
C2869      C2870   1.349       .  D
C2870      H2878   1.086       .  S
C2871      H2879   1.087       .  S
C2871      C2872   1.347       .  D
C2872      H2880   1.086       .  S
