geometry optimzed in LAMMPS
_audit_creation_date              2020-12-01 
_audit_creation_method            'lammps2cif' 
_symmetry_space_group_name_H-M    'P1' 
_symmetry_Int_Tables_number       1 
_symmetry_cell_setting            triclinic 
loop_ 
_symmetry_equiv_pos_as_xyz 
  x,y,z 
_cell_length_a                    47.16832842 
_cell_length_b                    47.2581925910028 
_cell_length_c                    101.80123142194329 
_cell_angle_alpha                 90.22337534229625 
_cell_angle_beta                  90.05585157991837 
_cell_angle_gamma                 89.77585028774307 
loop_ 
_atom_site_label 
_atom_site_type_symbol 
_atom_site_fract_x 
_atom_site_fract_y 
_atom_site_fract_z 
_atom_site_charge 
Zr1        Zr  0.14282724  0.99043894  0.55275432     2.17500
O2          O  0.14198797  0.04030753  0.54672212    -0.50600
O3          O  0.18437555  0.99449859  0.53811103    -0.73800
O4          O  0.16017486  0.02162680  0.57164868    -0.80600
O5          O  0.10229009  0.96531316  0.52301603    -0.82400
O6          O  0.17461151  0.99312615  0.58836621    -0.78000
O7          O  0.10361202  0.00243220  0.53704477    -0.89600
O8          O  0.20725225  0.95219269  0.53801201    -0.75600
O9          O  0.17510217  0.96032295  0.56429405    -0.85100
O10         O  0.14892282  0.94809911  0.53966401    -0.84800
O11         O  0.12076016  0.97996256  0.57351549    -0.71500
O12         O  0.09777729  0.96719994  0.55034667    -0.83600
Zr13       Zr  0.11383531  0.88646709  0.56919878     2.26400
Zr14       Zr  0.15264135  0.94833094  0.58463888     2.06300
Zr15       Zr  0.10394487  0.92478495  0.53736473     2.10000
Zr16       Zr  0.18144228  0.91883492  0.55126973     1.78800
O17         O  0.05625199  0.93038322  0.52854011    -0.92500
O18         O  0.22718092  0.92333902  0.56224985    -0.40300
O19         O  0.13684035  0.89495418  0.54860698    -0.76900
O20         O  0.16025117  0.90642408  0.57188132    -0.95600
O21         O  0.10708759  0.92765057  0.58227930    -0.88900
O22         O  0.08186881  0.91630150  0.55767883    -0.91700
C23         C  0.20449641  0.97788289  0.53423098     1.02000
C24         C  0.09437729  0.99014492  0.52644625     1.15000
C25         C  0.17167024  0.01745902  0.58316744     1.05700
O26         O  0.19956842  0.93600124  0.59286177    -0.93900
O27         O  0.14415075  0.91377747  0.60170981    -0.89600
O28         O  0.11903629  0.87780592  0.59242978    -0.82800
C29         C  0.13046298  0.89042238  0.60225926     1.12400
O30         O  0.05718568  0.00567287  0.57253245    -0.95900
Zr31       Zr  0.07564011  0.95762048  0.57071849     1.88900
O32         O  0.06597571  0.87766621  0.57654704    -0.72500
O33         O  0.13585580  0.97091296  0.60482358    -0.51800
O34         O  0.06503650  0.97145068  0.59326700    -0.96400
O35         O  0.03399565  0.96753311  0.55732006    -0.53700
O36         O  0.04380760  0.92045088  0.57752981    -0.73000
C37         C  0.04423881  0.89338889  0.57865091     0.99300
O38         O  0.13429149  0.83931459  0.57151641    -0.61800
O39         O  0.12193770  0.90458919  0.51695859    -0.56600
O40         O  0.09074392  0.85342621  0.55458955    -0.93300
O41         O  0.07964571  0.87803820  0.53613760    -0.91800
O42         O  0.19002277  0.89482787  0.53042170    -0.92100
O43         O  0.20734252  0.87441260  0.55348964    -0.90900
C44         C  0.07841978  0.85561810  0.54340694     1.18200
H45         H  0.15550344  0.95223769  0.53090977     0.34100
H46         H  0.17238006  0.89343584  0.57659495     0.45000
H47         H  0.06392781  0.90749960  0.55578487     0.38500
H48         H  0.11757822  0.99688039  0.57865012     0.35000
H49         H  0.22964752  0.94388013  0.56379761     0.26800
H50         H  0.15307619  0.97581634  0.60990603     0.32700
H51         H  0.06885361  0.95431875  0.59855857     0.38600
H52         H  0.17664311  0.87873553  0.53029629     0.33100
H53         H  0.10714337  0.90903433  0.51036535     0.31900
H54         H  0.05808225  0.92615488  0.51904668     0.33600
H55         H  0.01800717  0.96822112  0.56360792     0.32600
H56         H  0.19330620  0.86101743  0.55710250     0.36600
H57         H  0.14293501  0.83518986  0.56285299     0.29300
H58         H  0.16167645  0.04698324  0.54799761     0.33600
H59         H  0.07075556  0.01731884  0.56749961     0.36400
H60         H  0.13812076  0.91675396  0.51451794     0.29000
H61         H  0.15068795  0.84181490  0.57748082     0.41900
H62         H  0.19807594  0.93797565  0.60252263     0.31900
H63         H  0.22425527  0.91529988  0.57110608     0.39600
H64         H  0.03084505  0.94998210  0.55219680     0.31400
H65         H  0.12762304  0.98931981  0.60215023     0.31500
H66         H  0.13089876  0.04983331  0.55372413     0.31700
Zr67       Zr  0.28785740  0.13805117  0.69235002     2.17500
O68         O  0.23760591  0.13679808  0.69792426    -0.50600
O69         O  0.28594484  0.09605257  0.70655460    -0.73800
O70         O  0.25837086  0.11798781  0.67344778    -0.80600
O71         O  0.31050172  0.17868307  0.72254072    -0.82400
O72         O  0.28652503  0.11064533  0.65559453    -0.78000
O73         O  0.27353935  0.17553055  0.70842151    -0.89600
O74         O  0.32917411  0.07478138  0.70600882    -0.75600
O75         O  0.31915976  0.10896003  0.67980714    -0.85100
O76         O  0.33051385  0.13231269  0.70528683    -0.84800
O77         O  0.29673483  0.16348076  0.67230850    -0.71500
O78         O  0.31000918  0.18315689  0.69600385    -0.83600
Zr79       Zr  0.39045779  0.17364351  0.67655358     2.26400
Zr80       Zr  0.32985039  0.13464904  0.66022445     2.06300
Zr81       Zr  0.35264212  0.17735357  0.70884491     2.10000
Zr82       Zr  0.36080780  0.10254736  0.69264597     1.78800
O83         O  0.34957621  0.22092546  0.72162697    -0.92500
O84         O  0.35501128  0.05729675  0.68140802    -0.40300
O85         O  0.38326023  0.14747752  0.69638916    -0.76900
O86         O  0.37199735  0.12705403  0.67271123    -0.95600
O87         O  0.34880889  0.18061373  0.66378630    -0.88900
O88         O  0.35986117  0.20305984  0.68922251    -0.91700
C89         C  0.30348000  0.07645999  0.71002383     1.02000
C90         C  0.28525863  0.18533702  0.71903502     1.15000
C91         C  0.26274127  0.10898888  0.66145988     1.05700
O92         O  0.34168905  0.08874483  0.65076876    -0.93900
O93         O  0.36626924  0.14187274  0.64390435    -0.89600
O94         O  0.40098854  0.16816996  0.65351277    -0.82800
C95         C  0.38964647  0.15556243  0.64368162     1.12400
O96         O  0.26989311  0.22845383  0.67628990    -0.95900
Zr97       Zr  0.31773071  0.20892221  0.67656284     1.88900
O98         O  0.39648502  0.22218150  0.66945059    -0.72500
O99         O  0.30864204  0.15482754  0.64048840    -0.51800
O100        O  0.30139823  0.22224077  0.65474170    -0.96400
O101        O  0.30755342  0.24785728  0.69165639    -0.53700
O102        O  0.35275193  0.24244072  0.66951696    -0.73000
C103        C  0.37960041  0.24320425  0.66773389     0.99300
O104        O  0.43873267  0.15589024  0.67376469    -0.61800
O105        O  0.37184230  0.15106878  0.72739118    -0.56600
O106        O  0.42403058  0.19376344  0.69181237    -0.93300
O107        O  0.39993668  0.20108608  0.71085625    -0.91800
O108        O  0.38710084  0.09261537  0.71271990    -0.92100
O109        O  0.40549376  0.07869873  0.68788662    -0.90900
C110        C  0.42233056  0.20350957  0.70353997     1.18200
H111        H  0.32685715  0.12491201  0.71393487     0.34100
H112        H  0.38538294  0.11603210  0.66763786     0.45000
H113        H  0.36826521  0.22106674  0.69145143     0.38500
H114        H  0.27944025  0.16620578  0.66737795     0.35000
H115        H  0.33436617  0.05357178  0.68148508     0.26800
H116        H  0.30698754  0.13876478  0.63426182     0.32700
H117        H  0.31867992  0.22217156  0.64922965     0.38600
H118        H  0.40222382  0.10706990  0.71305624     0.33100
H119        H  0.38444236  0.16464634  0.73194442     0.31900
H120        H  0.35511662  0.21538379  0.73064434     0.33600
H121        H  0.32163802  0.26262084  0.68955391     0.32600
H122        H  0.41959681  0.09413024  0.68746758     0.36600
H123        H  0.44311230  0.14603137  0.68209531     0.29300
H124        H  0.23211802  0.11666340  0.69710118     0.33600
H125        H  0.25778135  0.21292375  0.67954337     0.36400
H126        H  0.35560895  0.14868782  0.73344029     0.29000
H127        H  0.43730788  0.14039020  0.66723109     0.41900
H128        H  0.33398553  0.08938467  0.64172409     0.31900
H129        H  0.35941998  0.06126072  0.67209636     0.39600
H130        H  0.31336384  0.24080788  0.70040384     0.31400
H131        H  0.28885293  0.15958028  0.64289665     0.31500
H132        H  0.22779803  0.14641466  0.69057390     0.31700
Zr133      Zr  0.38831733  0.49010377  0.55331602     2.17500
O134        O  0.39302078  0.54132760  0.55171843    -0.50600
O135        O  0.34752820  0.49275561  0.53834744    -0.73800
O136        O  0.41742746  0.50369493  0.53390571    -0.80600
O137        O  0.35493798  0.49091577  0.58852952    -0.82400
O138        O  0.41731779  0.46191347  0.52379461    -0.78000
O139        O  0.36558916  0.51990925  0.57142292    -0.89600
O140        O  0.32847061  0.44877381  0.53697893    -0.75600
O141        O  0.38659336  0.44719067  0.54050872    -0.85100
O142        O  0.35694351  0.45799756  0.56412418    -0.84800
O143        O  0.43617985  0.47036927  0.55198467    -0.71500
O144        O  0.40854389  0.48036371  0.57454115    -0.83600
Zr145      Zr  0.42210587  0.38809842  0.57071088     2.26400
Zr146      Zr  0.43355559  0.42684827  0.53924361     2.06300
Zr147      Zr  0.37795030  0.44683590  0.58499914     2.10000
Zr148      Zr  0.35453763  0.41630547  0.55102394     1.78800
O149        O  0.38851599  0.46900893  0.60607907    -0.92500
O150        O  0.34898172  0.39095075  0.53029712    -0.40300
O151        O  0.37425901  0.40494730  0.57207799    -0.76900
O152        O  0.40107142  0.39543265  0.54958933    -0.95600
O153        O  0.45364785  0.41953873  0.56021247    -0.88900
O154        O  0.42527784  0.42950767  0.58395739    -0.91700
C155        C  0.32934783  0.47499745  0.53376221     1.02000
C156        C  0.35453825  0.51499542  0.58296351     1.15000
C157        C  0.42568572  0.48746698  0.52440308     1.05700
O158        O  0.42576357  0.40166270  0.51864028    -0.93900
O159        O  0.46125200  0.38151705  0.53876425    -0.89600
O160        O  0.44836240  0.35637168  0.55672930    -0.82800
C161        C  0.46206329  0.35893523  0.54596386     1.12400
O162        O  0.46764583  0.51111658  0.57634703    -0.95900
Zr163      Zr  0.45556084  0.46153781  0.57306158     1.88900
O164        O  0.46988115  0.38338096  0.57907283    -0.72500
O165        O  0.47932334  0.44399539  0.53167660    -0.51800
O166        O  0.49771414  0.47623288  0.56111403    -0.96400
O167        O  0.46481821  0.47347227  0.59599245    -0.53700
O168        O  0.49078956  0.42646223  0.57858655    -0.73000
C169        C  0.49136640  0.39966647  0.58043135     0.99300
O170        O  0.40718891  0.33879804  0.57224635    -0.61800
O171        O  0.33044298  0.43209492  0.59128556    -0.56600
O172        O  0.40952406  0.37548805  0.59282489    -0.93300
O173        O  0.38463617  0.41178164  0.60205744    -0.91800
O174        O  0.30813492  0.41722717  0.56153941    -0.92100
O175        O  0.33317367  0.36976562  0.55325307    -0.90900
C176        C  0.39650972  0.38735811  0.60241325     1.18200
H177        H  0.33842213  0.46642927  0.56518133     0.34100
H178        H  0.40012053  0.37777947  0.54478833     0.45000
H179        H  0.43299118  0.42544345  0.59253447     0.38500
H180        H  0.44960104  0.48312111  0.54805203     0.35000
H181        H  0.33108213  0.39816376  0.52645411     0.26800
H182        H  0.49289506  0.43775818  0.53851191     0.32700
H183        H  0.51361918  0.47326665  0.56731558     0.38600
H184        H  0.29831066  0.43402560  0.55792037     0.33100
H185        H  0.32737994  0.44082420  0.60003021     0.31900
H186        H  0.37130267  0.46614873  0.61147025     0.33600
H187        H  0.47217408  0.45587707  0.60002069     0.32600
H188        H  0.34562791  0.35965583  0.55952673     0.36600
H189        H  0.38911519  0.33921939  0.57717306     0.29300
H190        H  0.38574060  0.54623032  0.54288595     0.33600
H191        H  0.45204030  0.52171939  0.57206805     0.36400
H192        H  0.31756844  0.44267618  0.58538244     0.29000
H193        H  0.40135268  0.33351106  0.56322216     0.41900
H194        H  0.44493040  0.39828250  0.51498741     0.31900
H195        H  0.36404371  0.39861389  0.52457055     0.39600
H196        H  0.44582318  0.47618921  0.59994067     0.31400
H197        H  0.48389779  0.43206764  0.52394493     0.31500
H198        H  0.41368504  0.54483846  0.55127202     0.31700
Zr199      Zr  0.23441038  0.63920789  0.69022841     2.17500
O200        O  0.28547247  0.64367736  0.69322540    -0.50600
O201        O  0.23518509  0.59663608  0.70421283    -0.73800
O202        O  0.24506809  0.66471991  0.71112049    -0.80600
O203        O  0.24542241  0.62347328  0.65287664    -0.82400
O204        O  0.20256396  0.66896647  0.72130456    -0.78000
O205        O  0.26732151  0.61876291  0.67266726    -0.89600
O206        O  0.19197852  0.57596449  0.70285957    -0.75600
O207        O  0.19012657  0.63085391  0.70111852    -0.85100
O208        O  0.20661347  0.60980612  0.67612340    -0.84800
O209        O  0.21114052  0.68494683  0.69375305    -0.71500
O210        O  0.22678975  0.66636392  0.67045437    -0.83600
Zr211      Zr  0.13371077  0.67246929  0.67087802     2.26400
Zr212      Zr  0.16652308  0.67552860  0.70456300     2.06300
Zr213      Zr  0.19780738  0.63691124  0.65669352     2.10000
Zr214      Zr  0.16300350  0.60129123  0.68714445     1.78800
O215        O  0.22019243  0.64588893  0.63553705    -0.92500
O216        O  0.13190046  0.59094456  0.70557919    -0.40300
O217        O  0.15401819  0.62665071  0.66713536    -0.76900
O218        O  0.13889936  0.64550733  0.69062425    -0.95600
O219        O  0.16027494  0.70225181  0.68512048    -0.88900
O220        O  0.17717595  0.68236198  0.66000901    -0.91700
C221        C  0.21706721  0.57763981  0.70763615     1.02000
C222        C  0.26660132  0.61645060  0.65986783     1.15000
C223        C  0.22940340  0.67310935  0.72085761     1.05700
O224        O  0.14058678  0.65475295  0.72279638    -0.93900
O225        O  0.11887004  0.69837523  0.70536210    -0.89600
O226        O  0.09865324  0.69308187  0.68528752    -0.82800
C227        C  0.09799831  0.70172548  0.69723042     1.12400
O228        O  0.25277028  0.72727516  0.67495092    -0.95900
Zr229      Zr  0.20381409  0.71121127  0.67431708     1.88900
O230        O  0.12611976  0.72059741  0.66423227    -0.72500
O231        O  0.17291767  0.71987159  0.71650835    -0.51800
O232        O  0.21319284  0.75078672  0.68909111    -0.96400
O233        O  0.21837720  0.73051868  0.65320484    -0.53700
O234        O  0.16607979  0.74482181  0.66948944    -0.73000
C235        C  0.14044502  0.74341066  0.66528558     0.99300
O236        O  0.08728023  0.65335482  0.66531186    -0.61800
O237        O  0.18692274  0.58867043  0.64994480    -0.56600
O238        O  0.12705247  0.66862388  0.64739967    -0.93300
O239        O  0.16629179  0.64760622  0.63870561    -0.91800
O240        O  0.17253552  0.55657642  0.67594635    -0.92100
O241        O  0.12076327  0.57562077  0.68036863    -0.90900
C242        C  0.14188599  0.65926634  0.63777180     1.18200
H243        H  0.21637245  0.59231400  0.67414373     0.34100
H244        H  0.12048286  0.64213761  0.69444970     0.45000
H245        H  0.17444170  0.69257212  0.65191379     0.38500
H246        H  0.22216773  0.69808407  0.69887825     0.35000
H247        H  0.13345943  0.57022233  0.70680535     0.26800
H248        H  0.19203930  0.72652103  0.71402392     0.32700
H249        H  0.19445043  0.75593978  0.69277537     0.38600
H250        H  0.17558417  0.54265555  0.68305662     0.33100
H251        H  0.16779769  0.58987764  0.64596213     0.31900
H252        H  0.21664775  0.62871219  0.63017832     0.33600
H253        H  0.20087748  0.73823987  0.64918304     0.32600
H254        H  0.11004875  0.58920923  0.67487669     0.36600
H255        H  0.09139836  0.63506368  0.66092021     0.29300
H256        H  0.28954917  0.63449516  0.70175044     0.33600
H257        H  0.26207381  0.71491924  0.68151864     0.36400
H258        H  0.19973943  0.58486297  0.64244298     0.29000
H259        H  0.07874133  0.64791232  0.67380949     0.41900
H260        H  0.12225082  0.64866317  0.71900484     0.31900
H261        H  0.14175142  0.59906331  0.71330529     0.39600
H262        H  0.22322165  0.71377595  0.64776637     0.31400
H263        H  0.15981267  0.73346330  0.71226359     0.31500
H264        H  0.28878413  0.66409355  0.69478639     0.31700
Zr265      Zr  0.64096420  0.04256085  0.55298012     2.17500
O266        O  0.63554602  0.99160856  0.55008505    -0.50600
O267        O  0.68236947  0.04042576  0.53829780    -0.73800
O268        O  0.61287248  0.03091845  0.53303486    -0.80600
O269        O  0.66866214  0.03540478  0.58932487    -0.82400
O270        O  0.61222679  0.07305849  0.52291782    -0.78000
O271        O  0.66277536  0.01030812  0.57036036    -0.89600
O272        O  0.70526311  0.08254112  0.53938754    -0.75600
O273        O  0.64721060  0.08638159  0.54133507    -0.85100
O274        O  0.67244040  0.07121813  0.56567596    -0.84800
O275        O  0.59440214  0.06524780  0.55069449    -0.71500
O276        O  0.61734296  0.05109861  0.57361690    -0.83600
Zr277      Zr  0.61022740  0.14413470  0.57228399     2.26400
Zr278      Zr  0.60167904  0.10940118  0.53916182     2.06300
Zr279      Zr  0.64870518  0.08110565  0.58599876     2.10000
Zr280      Zr  0.67907713  0.11408316  0.55393679     1.78800
O281        O  0.63845017  0.05768876  0.60673204    -0.92500
O282        O  0.69000536  0.14139425  0.53435163    -0.40300
O283        O  0.65672522  0.12414442  0.57464819    -0.76900
O284        O  0.63402488  0.13744692  0.55161109    -0.95600
O285        O  0.57833198  0.11653151  0.55952163    -0.88900
O286        O  0.60265793  0.10127304  0.58386996    -0.91700
C287        C  0.70234691  0.05735492  0.53481548     1.02000
C288        C  0.67098040  0.01276358  0.58258945     1.15000
C289        C  0.60513215  0.04696247  0.52341703     1.05700
O290        O  0.61355129  0.13385732  0.51891178    -0.93900
O291        O  0.58117348  0.15848444  0.53845747    -0.89600
O292        O  0.58936940  0.17943126  0.55821886    -0.82800
C293        C  0.57983933  0.17998394  0.54643542     1.12400
O294        O  0.55947616  0.05945689  0.59337129    -0.95900
Zr295      Zr  0.57178923  0.07350338  0.57110492     1.88900
O296        O  0.56241566  0.15199596  0.58013566    -0.72500
O297        O  0.55515813  0.09937543  0.52989361    -0.51800
O298        O  0.55450568  0.02500813  0.57123048    -0.96400
O299        O  0.52847660  0.06687267  0.55840331    -0.53700
O300        O  0.53912585  0.11021348  0.57807174    -0.73000
C301        C  0.54014222  0.13664068  0.58094046     0.99300
O302        O  0.63121390  0.19053350  0.57599945    -0.61800
O303        O  0.69628235  0.09641735  0.59194987    -0.56600
O304        O  0.61658331  0.15154171  0.59568951    -0.93300
O305        O  0.63991225  0.11336211  0.60406543    -0.91800
O306        O  0.72480261  0.10830941  0.56475550    -0.92100
O307        O  0.70044515  0.15955774  0.55922080    -0.90900
C308        C  0.62736651  0.13731685  0.60519683     1.18200
H309        H  0.69032821  0.06171234  0.56708478     0.34100
H310        H  0.63683539  0.15545917  0.54735631     0.45000
H311        H  0.59350665  0.10421188  0.59224076     0.38500
H312        H  0.58060133  0.05393609  0.54609694     0.35000
H313        H  0.71074370  0.13923246  0.53318576     0.26800
H314        H  0.54212133  0.11238257  0.53458971     0.32700
H315        H  0.56713696  0.01476056  0.56505765     0.38600
H316        H  0.73885668  0.11478597  0.55821289     0.33100
H317        H  0.69530702  0.10063387  0.60147173     0.31900
H318        H  0.65526422  0.06122494  0.61233299     0.33600
H319        H  0.52524152  0.08526935  0.55402411     0.32600
H320        H  0.68504641  0.17355190  0.55788170     0.36600
H321        H  0.64850113  0.18670652  0.58123464     0.29300
H322        H  0.64239728  0.98747277  0.54108520     0.33600
H323        H  0.53849134  0.05894949  0.59343713     0.36400
H324        H  0.70811044  0.07911673  0.59133563     0.29000
H325        H  0.63858136  0.19630135  0.56731076     0.41900
H326        H  0.63389282  0.12969355  0.51749238     0.31900
H327        H  0.68167864  0.13038826  0.52702271     0.39600
H328        H  0.51319524  0.06575147  0.56504468     0.31400
H329        H  0.55603132  0.10700984  0.52085870     0.31500
H330        H  0.61482497  0.98837257  0.54973335     0.31700
Zr331      Zr  0.79391716  0.89341676  0.68951708     2.17500
O332        O  0.74230331  0.89153019  0.69057415    -0.50600
O333        O  0.78704747  0.93446221  0.70417337    -0.73800
O334        O  0.77755987  0.86183949  0.70731053    -0.80600
O335        O  0.79463525  0.92356220  0.65406078    -0.82400
O336        O  0.81579051  0.86020108  0.72056505    -0.78000
O337        O  0.76457831  0.91204336  0.67066072    -0.89600
O338        O  0.82841866  0.95867758  0.70529309    -0.75600
O339        O  0.83375853  0.89846395  0.70406648    -0.85100
O340        O  0.82549774  0.92701887  0.67994255    -0.84800
O341        O  0.81604756  0.84677564  0.69145360    -0.71500
O342        O  0.80856357  0.87357727  0.66871345    -0.83600
Zr343      Zr  0.90068052  0.86730943  0.67637320     2.26400
Zr344      Zr  0.85601713  0.85265818  0.70617925     2.06300
Zr345      Zr  0.84116686  0.90698517  0.65954708     2.10000
Zr346      Zr  0.86488330  0.93195211  0.69443790     1.78800
O347        O  0.82534814  0.90011990  0.63696503    -0.92500
O348        O  0.88240438  0.94011648  0.71666432    -0.40300
O349        O  0.88073584  0.91357488  0.67382058    -0.76900
O350        O  0.88763012  0.88693283  0.69719631    -0.95600
O351        O  0.86962481  0.83351478  0.68563455    -0.88900
O352        O  0.86208686  0.86114975  0.66145783    -0.91700
C353        C  0.80235935  0.95522307  0.70827390     1.02000
C354        C  0.76991216  0.92244878  0.65910887     1.15000
C355        C  0.79037912  0.85314050  0.71775591     1.05700
O356        O  0.87607633  0.86352577  0.72765067    -0.93900
O357        O  0.90223183  0.82721074  0.70836483    -0.89600
O358        O  0.93046447  0.84198450  0.69167270    -0.82800
C359        C  0.92615620  0.82754658  0.70211290     1.12400
O360        O  0.78350810  0.81299003  0.66486424    -0.95900
Zr361      Zr  0.83105192  0.82813915  0.67093306     1.88900
O362        O  0.91258544  0.82118892  0.66791591    -0.72500
O363        O  0.84235158  0.80529606  0.71305539    -0.51800
O364        O  0.81846655  0.78391436  0.68161902    -0.96400
O365        O  0.82566411  0.81524730  0.64783059    -0.53700
O366        O  0.87116202  0.79674418  0.66749544    -0.73000
C367        C  0.89818897  0.79853941  0.66636757     0.99300
O368        O  0.94768128  0.88850115  0.67710258    -0.61800
O369        O  0.85216204  0.95646835  0.65538165    -0.56600
O370        O  0.91619665  0.87919456  0.65456058    -0.93300
O371        O  0.87953318  0.90080850  0.64395555    -0.91800
O372        O  0.86758949  0.97813181  0.68394760    -0.92100
O373        O  0.91191892  0.95288520  0.69518700    -0.90900
C374        C  0.90453676  0.89009099  0.64438218     1.18200
H375        H  0.81597968  0.94487498  0.67854881     0.34100
H376        H  0.90412550  0.88894449  0.70275968     0.45000
H377        H  0.86814441  0.85340486  0.65313798     0.38500
H378        H  0.80373149  0.83206117  0.69460789     0.35000
H379        H  0.87431391  0.95858169  0.71940138     0.26800
H380        H  0.85467322  0.79239438  0.70789774     0.32700
H381        H  0.82183302  0.76916230  0.67485440     0.38600
H382        H  0.84769954  0.98436017  0.68275068     0.33100
H383        H  0.87284973  0.95798797  0.65685676     0.31900
H384        H  0.82992817  0.91801052  0.63241073     0.33600
H385        H  0.84415234  0.80709208  0.64516011     0.32600
H386        H  0.92479305  0.93760835  0.69217877     0.36600
H387        H  0.94532221  0.90725864  0.67293113     0.29300
H388        H  0.73736431  0.89587409  0.69981878     0.33600
H389        H  0.77118907  0.82047965  0.67194979     0.36400
H390        H  0.84985789  0.95868816  0.64577379     0.29000
H391        H  0.95101167  0.89290139  0.68649389     0.41900
H392        H  0.87617038  0.84524951  0.73237463     0.31900
H393        H  0.87241290  0.92602533  0.72212232     0.39600
H394        H  0.82439300  0.83346646  0.64309372     0.31400
H395        H  0.84936780  0.80363274  0.72218915     0.31500
H396        H  0.73747044  0.87131064  0.68936645     0.31700
Zr397      Zr  0.89123991  0.55059218  0.55653924     2.17500
O398        O  0.89099933  0.50084488  0.55012209    -0.50600
O399        O  0.84962417  0.54676825  0.54203657    -0.73800
O400        O  0.87104901  0.52115100  0.57529637    -0.80600
O401        O  0.93117442  0.57174957  0.52638481    -0.82400
O402        O  0.86195353  0.55024704  0.59266414    -0.78000
O403        O  0.92934138  0.53590435  0.54102955    -0.89600
O404        O  0.82654720  0.58901888  0.54197258    -0.75600
O405        O  0.86072582  0.58167763  0.56851783    -0.85100
O406        O  0.88474075  0.59216753  0.54304299    -0.84800
O407        O  0.91612683  0.56082986  0.57670272    -0.71500
O408        O  0.93631978  0.57324885  0.55309487    -0.83600
Zr409      Zr  0.92387760  0.65393471  0.57160664     2.26400
Zr410      Zr  0.88597537  0.59360624  0.58823337     2.06300
Zr411      Zr  0.92959997  0.61455440  0.53963956     2.10000
Zr412      Zr  0.85377529  0.62233507  0.55513663     1.78800
O413        O  0.97385027  0.60897672  0.52755165    -0.92500
O414        O  0.80962721  0.61913669  0.56744300    -0.40300
O415        O  0.89856419  0.64510482  0.55154047    -0.76900
O416        O  0.87748887  0.63476016  0.57527577    -0.95600
O417        O  0.93155147  0.61345342  0.58482170    -0.88900
O418        O  0.95429113  0.62348590  0.55934758    -0.91700
C419        C  0.82945354  0.56322013  0.53816586     1.02000
C420        C  0.93828895  0.54687552  0.53016121     1.15000
C421        C  0.86084691  0.52614556  0.58701899     1.05700
O422        O  0.84115395  0.60597698  0.59863583    -0.93900
O423        O  0.89527643  0.62965020  0.60458001    -0.89600
O424        O  0.92252619  0.66322760  0.59487741    -0.82800
C425        C  0.91056896  0.65199213  0.60485980     1.12400
O426        O  0.97823524  0.53415884  0.57400634    -0.95900
Zr427      Zr  0.96140123  0.58286239  0.57274954     1.88900
O428        O  0.97289771  0.66305283  0.57721567    -0.72500
O429        O  0.90645034  0.57304184  0.60804279    -0.51800
O430        O  0.97384822  0.57346816  0.59555393    -0.96400
O431        O  0.00332447  0.57100715  0.55984522    -0.53700
O432        O  0.99500764  0.62019208  0.57762341    -0.73000
C433        C  0.99492412  0.64732398  0.57848157     0.99300
O434        O  0.90356235  0.70002178  0.57698066    -0.61800
O435        O  0.90682517  0.63486953  0.52037270    -0.56600
O436        O  0.94200069  0.68716474  0.55584688    -0.93300
O437        O  0.95222261  0.66200270  0.53740610    -0.91800
O438        O  0.83910742  0.64490896  0.53476482    -0.92100
O439        O  0.83537385  0.67045203  0.55709203    -0.90900
C440        C  0.95291810  0.68501888  0.54436601     1.18200
H441        H  0.87755917  0.58784245  0.53439214     0.34100
H442        H  0.86617494  0.64809388  0.58024760     0.45000
H443        H  0.97192458  0.63214470  0.55679511     0.38500
H444        H  0.91898318  0.54382108  0.58176107     0.35000
H445        H  0.79597149  0.63101191  0.56251456     0.26800
H446        H  0.89006374  0.56864204  0.61374365     0.32700
H447        H  0.97440588  0.59230099  0.59984493     0.38600
H448        H  0.85696875  0.65127941  0.53065613     0.33100
H449        H  0.92274078  0.64107584  0.51475472     0.31900
H450        H  0.98855836  0.61728828  0.53332068     0.33600
H451        H  0.01961535  0.57574784  0.56557673     0.32600
H452        H  0.83340290  0.67398434  0.56663780     0.36600
H453        H  0.91927699  0.71367797  0.57599585     0.29300
H454        H  0.87085315  0.49510067  0.55048769     0.33600
H455        H  0.96326783  0.52289517  0.56962901     0.36400
H456        H  0.89858927  0.61852361  0.51563238     0.29000
H457        H  0.89047524  0.70423626  0.56963136     0.41900
H458        H  0.82651886  0.60045762  0.59215138     0.31900
H459        H  0.80295605  0.59953467  0.56598220     0.39600
H460        H  0.00379966  0.58539387  0.55280794     0.31400
H461        H  0.91405934  0.55437017  0.60533341     0.31500
H462        H  0.90019870  0.49070103  0.55748179     0.31700
Zr463      Zr  0.73369078  0.38660222  0.68932489     2.17500
O464        O  0.78417083  0.38405255  0.69435042    -0.50600
O465        O  0.73750361  0.42854706  0.70314636    -0.73800
O466        O  0.76331347  0.40900954  0.67118887    -0.80600
O467        O  0.71011841  0.34964350  0.72035454    -0.82400
O468        O  0.73758383  0.41035214  0.65228799    -0.78000
O469        O  0.74724348  0.35159994  0.70622642    -0.89600
O470        O  0.69535870  0.45187092  0.70250532    -0.75600
O471        O  0.70355394  0.41520779  0.67621412    -0.85100
O472        O  0.69146778  0.39456603  0.70236360    -0.84800
O473        O  0.72481630  0.35935467  0.66976901    -0.71500
O474        O  0.71032485  0.34242541  0.69375931    -0.83600
Zr475      Zr  0.63108619  0.35326183  0.67402396     2.26400
Zr476      Zr  0.69309784  0.38792768  0.65691436     2.06300
Zr477      Zr  0.66790629  0.35038376  0.70654774     2.10000
Zr478      Zr  0.66245240  0.42428079  0.68916027     1.78800
O479        O  0.67247523  0.30813083  0.72003790    -0.92500
O480        O  0.66773650  0.46852229  0.67718659    -0.40300
O481        O  0.63862140  0.38046833  0.69354862    -0.76900
O482        O  0.65122717  0.39860299  0.66930286    -0.95600
O483        O  0.67239911  0.34344468  0.66157953    -0.88900
O484        O  0.66022627  0.32372337  0.68723105    -0.91700
C485        C  0.72100907  0.44893870  0.70657420     1.02000
C486        C  0.73555244  0.34316698  0.71700847     1.15000
C487        C  0.76010571  0.41554618  0.65881649     1.05700
O488        O  0.67947602  0.43274746  0.64697194    -0.93900
O489        O  0.65979220  0.37266878  0.64006435    -0.89600
O490        O  0.62278740  0.35297579  0.65076036    -0.82800
C491        C  0.63574813  0.36000410  0.64023826     1.12400
O492        O  0.74974428  0.29502634  0.67499088    -0.95900
Zr493      Zr  0.70206836  0.31501548  0.67474128     1.88900
O494        O  0.62217697  0.30457092  0.66815736    -0.72500
O495        O  0.71584777  0.36684304  0.63767681    -0.51800
O496        O  0.71595606  0.29875665  0.65293794    -0.96400
O497        O  0.70999134  0.27641425  0.69013152    -0.53700
O498        O  0.66502971  0.28232060  0.66866089    -0.73000
C499        C  0.63805782  0.28264118  0.66703578     0.99300
O500        O  0.58476049  0.37466720  0.67013433    -0.61800
O501        O  0.64702480  0.37641924  0.72485152    -0.56600
O502        O  0.59701472  0.33394983  0.68907739    -0.93300
O503        O  0.61996881  0.32698574  0.70839269    -0.91800
O504        O  0.63327465  0.43244275  0.70855071    -0.92100
O505        O  0.61842865  0.45020193  0.68544019    -0.90900
C506        C  0.59776546  0.32458419  0.70086034     1.18200
H507        H  0.69530562  0.40247090  0.71093346     0.34100
H508        H  0.63830580  0.40947958  0.66394473     0.45000
H509        H  0.65108564  0.30632133  0.68971823     0.38500
H510        H  0.74228501  0.35595024  0.66507062     0.35000
H511        H  0.66790589  0.48343921  0.68404446     0.26800
H512        H  0.72110173  0.38284059  0.63192973     0.32700
H513        H  0.69875225  0.30105927  0.64745690     0.38600
H514        H  0.64271982  0.44801739  0.71336233     0.33100
H515        H  0.63749939  0.36179365  0.73018868     0.31900
H516        H  0.66587580  0.31404228  0.72886675     0.33600
H517        H  0.70814690  0.25897046  0.68478488     0.32600
H518        H  0.61226415  0.44477113  0.67648630     0.36600
H519        H  0.58011973  0.38451681  0.67846800     0.29300
H520        H  0.79096454  0.40383112  0.69395940     0.33600
H521        H  0.76253463  0.31157671  0.67482261     0.36400
H522        H  0.66338799  0.38241609  0.73027099     0.29000
H523        H  0.58831561  0.39016866  0.66383963     0.41900
H524        H  0.67733632  0.42843320  0.63750098     0.31900
H525        H  0.68736646  0.46820300  0.67375633     0.39600
H526        H  0.69305065  0.27644210  0.69586412     0.31400
H527        H  0.73410113  0.35903211  0.64085603     0.31500
H528        H  0.79290879  0.37453956  0.68666525     0.31700
Zr529      Zr  0.79787767  0.63560285  0.19004923     2.17500
O530        O  0.74820684  0.63545731  0.19663736    -0.50600
O531        O  0.79366293  0.59503055  0.20507851    -0.73800
O532        O  0.76601582  0.61751894  0.17171635    -0.80600
O533        O  0.82164977  0.68021532  0.21915370    -0.82400
O534        O  0.79192172  0.61314200  0.15300021    -0.78000
O535        O  0.78464068  0.67490634  0.20504350    -0.89600
O536        O  0.83520876  0.57069672  0.20473690    -0.75600
O537        O  0.82714511  0.60324953  0.17815467    -0.85100
O538        O  0.83988469  0.62849190  0.20325260    -0.84800
O539        O  0.80817170  0.65904409  0.16957197    -0.71500
O540        O  0.82236125  0.67987580  0.19297858    -0.83600
Zr541      Zr  0.90138510  0.66460217  0.17400515     2.26400
Zr542      Zr  0.83930643  0.62698810  0.15821581     2.06300
Zr543      Zr  0.86414638  0.67254422  0.20613124     2.10000
Zr544      Zr  0.86864340  0.59611929  0.19115883     1.78800
O545        O  0.86393494  0.71415392  0.22032104    -0.92500
O546        O  0.86323880  0.55105367  0.17970297    -0.40300
O547        O  0.89332799  0.64021044  0.19422874    -0.76900
O548        O  0.88126279  0.61841374  0.17078341    -0.95600
O549        O  0.86020682  0.67238512  0.16093433    -0.88900
O550        O  0.87234353  0.69636438  0.18616735    -0.91700
C551        C  0.80984021  0.57460891  0.20891437     1.02000
C552        C  0.79625478  0.68574205  0.21541841     1.15000
C553        C  0.76870921  0.61113237  0.15931054     1.05700
O554        O  0.85334809  0.57863520  0.15296790    -0.93900
O555        O  0.87219113  0.64080386  0.14121627    -0.89600
O556        O  0.91111052  0.65932820  0.15100452    -0.82800
C557        C  0.89707480  0.65145391  0.14088013     1.12400
O558        O  0.78154393  0.71851901  0.17277272    -0.95900
Zr559      Zr  0.83114854  0.70378532  0.17305712     1.88900
O560        O  0.91033024  0.71196177  0.16625477    -0.72500
O561        O  0.81714076  0.62853915  0.13654404    -0.51800
O562        O  0.82181012  0.71908333  0.15061400    -0.96400
O563        O  0.82173304  0.74688490  0.18553500    -0.53700
O564        O  0.86845783  0.73596986  0.16704151    -0.73000
C565        C  0.89520029  0.73434433  0.16498899     0.99300
O566        O  0.94896265  0.64498046  0.17150702    -0.61800
O567        O  0.88338067  0.64406890  0.22394460    -0.56600
O568        O  0.93477991  0.68680468  0.18867655    -0.93300
O569        O  0.91114642  0.69679951  0.20755115    -0.91800
O570        O  0.89222904  0.58534369  0.21184978    -0.92100
O571        O  0.91372576  0.57154159  0.18823536    -0.90900
C572        C  0.93340606  0.69808429  0.20011617     1.18200
H573        H  0.83574909  0.62198178  0.21201263     0.34100
H574        H  0.89433663  0.60658435  0.16591305     0.45000
H575        H  0.88157185  0.71402928  0.18821693     0.38500
H576        H  0.79114821  0.66254309  0.16456823     0.35000
H577        H  0.86923799  0.53658155  0.18615361     0.26800
H578        H  0.81951530  0.64823425  0.13345854     0.32700
H579        H  0.83892154  0.71361841  0.14556418     0.38600
H580        H  0.89084781  0.56453382  0.21274599     0.33100
H581        H  0.90419109  0.64617587  0.22317090     0.31900
H582        H  0.87212712  0.70760393  0.22874042     0.33600
H583        H  0.81916536  0.76177368  0.17881433     0.32600
H584        H  0.92785178  0.58684361  0.18731158     0.36600
H585        H  0.95390039  0.63749695  0.18029248     0.29300
H586        H  0.74136228  0.61607203  0.19476369     0.33600
H587        H  0.77457405  0.71405565  0.16382975     0.36400
H588        H  0.87836647  0.65459153  0.23204586     0.29000
H589        H  0.94648634  0.62785172  0.16600373     0.41900
H590        H  0.85971269  0.57941372  0.14371335     0.31900
H591        H  0.84251120  0.54833754  0.17887072     0.39600
H592        H  0.83996815  0.75155209  0.18983690     0.31400
H593        H  0.82924322  0.61688299  0.13068378     0.31500
H594        H  0.73838603  0.64761728  0.19015505     0.31700
Zr595      Zr  0.64803908  0.48503072  0.05324279     2.17500
O596        O  0.64883675  0.53491941  0.04731094    -0.50600
O597        O  0.68965577  0.48878019  0.03882680    -0.73800
O598        O  0.66639720  0.51480590  0.07221957    -0.80600
O599        O  0.60802334  0.46515120  0.02302473    -0.82400
O600        O  0.67657842  0.48541192  0.08926263    -0.78000
O601        O  0.60927818  0.50022007  0.03810207    -0.89600
O602        O  0.71304682  0.44663222  0.03849593    -0.75600
O603        O  0.67910487  0.45298771  0.06441982    -0.85100
O604        O  0.65356676  0.44405344  0.03920413    -0.84800
O605        O  0.62494982  0.47390054  0.07368323    -0.71500
O606        O  0.60255923  0.46327684  0.05001814    -0.83600
Zr607      Zr  0.61598131  0.38121716  0.06716556     2.26400
Zr608      Zr  0.65545043  0.44045261  0.08440664     2.06300
Zr609      Zr  0.60808471  0.42237482  0.03602511     2.10000
Zr610      Zr  0.68471327  0.41268016  0.05043383     1.78800
O611        O  0.56409752  0.42983641  0.02393429    -0.92500
O612        O  0.73160792  0.41124490  0.06047883    -0.40300
O613        O  0.63955136  0.39060286  0.04688055    -0.76900
O614        O  0.66261136  0.39989505  0.07074509    -0.95600
O615        O  0.60954279  0.42109643  0.08124564    -0.88900
O616        O  0.58484708  0.41285086  0.05609322    -0.91700
C617        C  0.70996900  0.47246541  0.03495336     1.02000
C618        C  0.60030859  0.48958708  0.02711656     1.15000
C619        C  0.67641729  0.50985845  0.08392966     1.05700
O620        O  0.70136039  0.42504208  0.09272782    -0.93900
O621        O  0.64368614  0.40413384  0.10029583    -0.89600
O622        O  0.62355757  0.36713945  0.08948690    -0.82800
C623        C  0.63273002  0.37933976  0.09988699     1.12400
O624        O  0.56288667  0.50171959  0.07173677    -0.95900
Zr625      Zr  0.57948687  0.45300046  0.07003068     1.88900
O626        O  0.56891235  0.37258655  0.07546203    -0.72500
O627        O  0.64258536  0.46258606  0.10526189    -0.51800
O628        O  0.56833286  0.46581644  0.09264997    -0.96400
O629        O  0.53690750  0.46406806  0.05745328    -0.53700
O630        O  0.54796790  0.41594570  0.07681276    -0.73000
C631        C  0.54786825  0.38894603  0.07792661     0.99300
O632        O  0.63689806  0.33402664  0.06821329    -0.61800
O633        O  0.63195521  0.40308800  0.01675196    -0.56600
O634        O  0.59183136  0.35051055  0.05186704    -0.93300
O635        O  0.58170126  0.37683956  0.03380388    -0.91800
O636        O  0.69010842  0.38898704  0.02927528    -0.92100
O637        O  0.70549339  0.36564033  0.05247178    -0.90900
C638        C  0.57992742  0.35385448  0.04066180     1.18200
H639        H  0.66061250  0.44873564  0.03058742     0.34100
H640        H  0.67417991  0.38610027  0.07527669     0.45000
H641        H  0.56664101  0.40460030  0.05417919     0.38500
H642        H  0.62216155  0.49052896  0.07908766     0.35000
H643        H  0.74503359  0.41096237  0.05300507     0.26800
H644        H  0.62437699  0.45383646  0.10781470     0.32700
H645        H  0.56992051  0.44793051  0.09763455     0.38600
H646        H  0.70327692  0.40096163  0.02419485     0.33100
H647        H  0.62494203  0.38343862  0.01596548     0.31900
H648        H  0.56897532  0.42588179  0.01464643     0.33600
H649        H  0.52360712  0.44842508  0.05922652     0.32600
H650        H  0.68916958  0.35258889  0.05184794     0.36600
H651        H  0.64110198  0.32881858  0.05898538     0.29300
H652        H  0.66819393  0.54150363  0.04947171     0.33600
H653        H  0.57126974  0.51130629  0.06403856     0.36400
H654        H  0.62326445  0.41315532  0.00923820     0.29000
H655        H  0.62113737  0.32143640  0.07079188     0.41900
H656        H  0.71524945  0.43726658  0.08821477     0.31900
H657        H  0.73407274  0.43017835  0.06450372     0.39600
H658        H  0.54256434  0.46120811  0.04817969     0.31400
H659        H  0.65655819  0.45525465  0.11168483     0.31500
H660        H  0.63637817  0.54440042  0.05381293     0.31700
Zr661      Zr  0.89854672  0.98599715  0.05550088     2.17500
O662        O  0.89867809  0.03730968  0.05330653    -0.50600
O663        O  0.85712508  0.98901148  0.04092856    -0.73800
O664        O  0.92865514  0.00024434  0.03634730    -0.80600
O665        O  0.87541838  0.98941122  0.09253126    -0.82400
O666        O  0.92779297  0.95955570  0.02518805    -0.78000
O667        O  0.88156286  0.01701120  0.07449729    -0.89600
O668        O  0.83567029  0.94611358  0.03963155    -0.75600
O669        O  0.89396790  0.94366367  0.04244450    -0.85100
O670        O  0.86613668  0.95488842  0.06646892    -0.84800
O671        O  0.94577617  0.96509464  0.05342624    -0.71500
O672        O  0.91952227  0.97456070  0.07638763    -0.83600
Zr673      Zr  0.92978205  0.88246999  0.07184989     2.26400
Zr674      Zr  0.94028879  0.92241359  0.04042273     2.06300
Zr675      Zr  0.88775120  0.94201503  0.08691920     2.10000
Zr676      Zr  0.86179746  0.91323413  0.05332336     1.78800
O677        O  0.88522009  0.95879970  0.10956267    -0.92500
O678        O  0.85552051  0.88815059  0.03259036    -0.40300
O679        O  0.88228634  0.90036579  0.07407265    -0.76900
O680        O  0.90764317  0.89151097  0.05105020    -0.95600
O681        O  0.96183508  0.91295417  0.06096035    -0.88900
O682        O  0.93477123  0.92377973  0.08513832    -0.91700
C683        C  0.83801867  0.97220022  0.03638087     1.02000
C684        C  0.87490660  0.01333690  0.08683289     1.15000
C685        C  0.93650963  0.98495170  0.02640176     1.05700
O686        O  0.93397690  0.90188675  0.01864140    -0.93900
O687        O  0.96188516  0.87456099  0.03822375    -0.89600
O688        O  0.95165550  0.84969740  0.05669724    -0.82800
C689        C  0.96267205  0.85179731  0.04524525     1.12400
O690        O  0.98203442  0.00301005  0.07627304    -0.95900
Zr691      Zr  0.96588624  0.95434834  0.07412813     1.88900
O692        O  0.97776665  0.87429729  0.07925405    -0.72500
O693        O  0.98823235  0.93607455  0.03438106    -0.51800
O694        O  0.01022390  0.96358173  0.06268840    -0.96400
O695        O  0.97478442  0.96799328  0.09688058    -0.53700
O696        O  0.99826621  0.91758709  0.08092585    -0.73000
C697        C  0.99859298  0.89057795  0.08200293     0.99300
O698        O  0.91083687  0.83503326  0.07494987    -0.61800
O699        O  0.83842736  0.92786721  0.08920355    -0.56600
O700        O  0.92365617  0.87201686  0.09479613    -0.93300
O701        O  0.89727095  0.90733474  0.10393724    -0.91800
O702        O  0.81433766  0.91529988  0.06271795    -0.92100
O703        O  0.84093462  0.86665049  0.05640814    -0.90900
C704        C  0.91141915  0.88414928  0.10454082     1.18200
H705        H  0.84800922  0.96397834  0.06780540     0.34100
H706        H  0.90570554  0.87412345  0.04611472     0.45000
H707        H  0.94345200  0.92013034  0.09354607     0.38500
H708        H  0.95987175  0.97726460  0.04959149     0.35000
H709        H  0.83552845  0.89169004  0.03009496     0.26800
H710        H  0.00060714  0.92259555  0.03914375     0.32700
H711        H  0.02483626  0.96391687  0.06967946     0.38600
H712        H  0.80155260  0.90973047  0.05543807     0.33100
H713        H  0.83766224  0.91790326  0.09773334     0.31900
H714        H  0.86583399  0.95408341  0.11255904     0.33600
H715        H  0.98190316  0.95068161  0.10124164     0.32600
H716        H  0.85645423  0.85499136  0.06011937     0.36600
H717        H  0.89366600  0.83769785  0.08041235     0.29300
H718        H  0.89403217  0.04099875  0.04398148     0.33600
H719        H  0.96963064  0.01388193  0.07025937     0.36400
H720        H  0.82799474  0.94579231  0.09074458     0.29000
H721        H  0.90333800  0.82949022  0.06622949     0.41900
H722        H  0.92007022  0.88649317  0.01988557     0.31900
H723        H  0.86673112  0.89911679  0.02617505     0.39600
H724        H  0.95571079  0.97112598  0.10069048     0.31400
H725        H  0.99004103  0.93042763  0.02504677     0.31500
H726        H  0.91882657  0.04277856  0.05425215     0.31700
Zr727      Zr  0.74506772  0.14102810  0.19108123     2.17500
O728        O  0.79605836  0.14300587  0.19482370    -0.50600
O729        O  0.74668093  0.09882843  0.20523189    -0.73800
O730        O  0.75586737  0.16935337  0.21116945    -0.80600
O731        O  0.75381961  0.11720306  0.15416376    -0.82400
O732        O  0.71366427  0.16858290  0.22128092    -0.78000
O733        O  0.77836163  0.12196364  0.17331681    -0.89600
O734        O  0.70376434  0.07725097  0.20445495    -0.75600
O735        O  0.70102927  0.13391458  0.20245360    -0.85100
O736        O  0.71652532  0.11021750  0.17797075    -0.84800
O737        O  0.72198165  0.18728265  0.19370182    -0.71500
O738        O  0.73703036  0.16546308  0.17062647    -0.83600
Zr739      Zr  0.64373980  0.17231136  0.17188271     2.26400
Zr740      Zr  0.67756805  0.17901134  0.20508163     2.06300
Zr741      Zr  0.70722015  0.13476661  0.15783753     2.10000
Zr742      Zr  0.67330171  0.10280765  0.18946874     1.78800
O743        O  0.73016209  0.15048632  0.13773155    -0.92500
O744        O  0.64361585  0.09347330  0.20854044    -0.40300
O745        O  0.66381231  0.12607687  0.16901715    -0.76900
O746        O  0.64940574  0.14744320  0.19217374    -0.95600
O747        O  0.67142098  0.20321757  0.18496781    -0.88900
O748        O  0.68668686  0.18057187  0.16026815    -0.91700
C749        C  0.72919741  0.07937761  0.20875858     1.02000
C750        C  0.77649090  0.11507703  0.16088633     1.15000
C751        C  0.73940484  0.17681249  0.22075035     1.05700
O752        O  0.65158085  0.15990005  0.22366450    -0.93900
O753        O  0.62995652  0.20244359  0.20585760    -0.89600
O754        O  0.60890691  0.19319735  0.18631259    -0.82800
C755        C  0.60853091  0.20388747  0.19789518     1.12400
O756        O  0.76376556  0.22595180  0.17302137    -0.95900
Zr757      Zr  0.71446885  0.21081327  0.17350308     1.88900
O758        O  0.63567714  0.22125922  0.16672070    -0.72500
O759        O  0.68645196  0.22394218  0.21615446    -0.51800
O760        O  0.72337164  0.25221483  0.18722778    -0.96400
O761        O  0.72762535  0.22782331  0.15175138    -0.53700
O762        O  0.67732713  0.24466620  0.16850089    -0.73000
C763        C  0.65053279  0.24381896  0.16637219     0.99300
O764        O  0.59699645  0.15358502  0.16655685    -0.61800
O765        O  0.69909481  0.08692107  0.14969573    -0.56600
O766        O  0.63637801  0.16759410  0.14845118    -0.93300
O767        O  0.67294585  0.14118790  0.14036820    -0.91800
O768        O  0.68095370  0.05736357  0.17858923    -0.92100
O769        O  0.63029968  0.07726359  0.18368726    -0.90900
C770        C  0.64964635  0.15494231  0.13912125     1.18200
H771        H  0.72628155  0.09255853  0.17638950     0.34100
H772        H  0.63118361  0.14454524  0.19627750     0.45000
H773        H  0.68364300  0.18971902  0.15193013     0.38500
H774        H  0.73295868  0.20119968  0.19841253     0.35000
H775        H  0.64378646  0.07262154  0.20947322     0.26800
H776        H  0.68805607  0.23787413  0.20895978     0.32700
H777        H  0.72288909  0.26842989  0.18109753     0.38600
H778        H  0.69755577  0.04871396  0.18299423     0.33100
H779        H  0.71490316  0.07544719  0.15327075     0.31900
H780        H  0.72654110  0.13524581  0.13124371     0.33600
H781        H  0.70955632  0.23250455  0.14728873     0.32600
H782        H  0.61923957  0.09071647  0.17827019     0.36600
H783        H  0.60082378  0.13509281  0.16229528     0.29300
H784        H  0.79884501  0.13631636  0.20394151     0.33600
H785        H  0.77189284  0.21914501  0.18141360     0.36400
H786        H  0.68213870  0.08029219  0.15448215     0.29000
H787        H  0.58844969  0.14853385  0.17510651     0.41900
H788        H  0.64579428  0.17668394  0.22887315     0.31900
H789        H  0.65481102  0.10038996  0.21612413     0.39600
H790        H  0.73484177  0.21087191  0.14706724     0.31400
H791        H  0.66842571  0.22883930  0.22060290     0.31500
H792        H  0.80065872  0.16342505  0.19510674     0.31700
Zr793      Zr  0.24289292  0.88326834  0.18929167     2.17500
O794        O  0.29207138  0.88667750  0.19649169    -0.50600
O795        O  0.24305420  0.92689240  0.20257297    -0.73800
O796        O  0.27413721  0.90296620  0.17102282    -0.80600
O797        O  0.21745901  0.84455585  0.21989729    -0.82400
O798        O  0.24882523  0.90647309  0.15202949    -0.78000
O799        O  0.25568369  0.84776671  0.20646569    -0.89600
O800        O  0.20040196  0.94843595  0.20015010    -0.75600
O801        O  0.21345535  0.91010325  0.17491311    -0.85100
O802        O  0.19890304  0.89087093  0.20093287    -0.84800
O803        O  0.23696050  0.85464865  0.16983468    -0.71500
O804        O  0.22059287  0.83833110  0.19347892    -0.83600
Zr805      Zr  0.14296925  0.84575971  0.17181903     2.26400
Zr806      Zr  0.20580291  0.88112605  0.15579097     2.06300
Zr807      Zr  0.17687564  0.84618014  0.20516505     2.10000
Zr808      Zr  0.17050107  0.91867595  0.18652100     1.78800
O809        O  0.17796740  0.80478530  0.21933896    -0.92500
O810        O  0.17634699  0.96105860  0.17324914    -0.40300
O811        O  0.14778289  0.87435795  0.19114738    -0.76900
O812        O  0.16222710  0.89137194  0.16690103    -0.95600
O813        O  0.18565237  0.83634406  0.16029735    -0.88900
O814        O  0.17182478  0.81817354  0.18605116    -0.91700
C815        C  0.22533814  0.94697537  0.20516207     1.02000
C816        C  0.24323857  0.83864505  0.21699524     1.15000
C817        C  0.27133034  0.91045771  0.15874041     1.05700
O818        O  0.19364608  0.92233328  0.14261659    -0.93900
O819        O  0.17383770  0.86545411  0.13853258    -0.89600
O820        O  0.13629380  0.84445779  0.14836749    -0.82800
C821        C  0.15016494  0.85215386  0.13817891     1.12400
O822        O  0.26372887  0.79382942  0.17684265    -0.95900
Zr823      Zr  0.21489799  0.80986691  0.17448246     1.88900
O824        O  0.13608023  0.79657594  0.16642972    -0.72500
O825        O  0.23316272  0.85617817  0.13898262    -0.51800
O826        O  0.23130738  0.79494096  0.15284455    -0.96400
O827        O  0.22116514  0.76784083  0.18798579    -0.53700
O828        O  0.17946922  0.77597435  0.16782860    -0.73000
C829        C  0.15275479  0.77521352  0.16557749     0.99300
O830        O  0.09582312  0.86408863  0.16679991    -0.61800
O831        O  0.15547839  0.87442898  0.22261174    -0.56600
O832        O  0.10854398  0.82663650  0.18667503    -0.93300
O833        O  0.13000848  0.82187202  0.20651313    -0.91800
O834        O  0.14179103  0.93357547  0.20520243    -0.92100
O835        O  0.12487302  0.93971248  0.18091161    -0.90900
C836        C  0.10873583  0.81829886  0.19861927     1.18200
H837        H  0.20140207  0.89945510  0.20946269     0.34100
H838        H  0.14961990  0.90152502  0.16108367     0.45000
H839        H  0.16300350  0.80058590  0.18854655     0.38500
H840        H  0.25509586  0.85138447  0.16570875     0.35000
H841        H  0.19474666  0.96916021  0.17601030     0.26800
H842        H  0.23625237  0.87028818  0.13197095     0.32700
H843        H  0.21384536  0.79083126  0.14778840     0.38600
H844        H  0.12819399  0.91796311  0.20659175     0.33100
H845        H  0.14193305  0.86148116  0.22691582     0.31900
H846        H  0.16696168  0.81042684  0.22721007     0.33600
H847        H  0.22192530  0.75184506  0.18167922     0.32600
H848        H  0.11362990  0.92388258  0.17725621     0.36600
H849        H  0.08981649  0.87413019  0.17489264     0.29300
H850        H  0.29842322  0.90576826  0.19384066     0.33600
H851        H  0.27333204  0.80945446  0.18156132     0.36400
H852        H  0.17082131  0.87696618  0.22915037     0.29000
H853        H  0.09898082  0.87938444  0.16035338     0.41900
H854        H  0.19917849  0.91709218  0.13354462     0.31900
H855        H  0.17979136  0.95391467  0.16423770     0.39600
H856        H  0.20290315  0.76548267  0.19263436     0.31400
H857        H  0.25220570  0.85289772  0.14277991     0.31500
H858        H  0.30264477  0.87347192  0.19070573     0.31700
Zr859      Zr  0.39565225  0.04779161  0.05574733     2.17500
O860        O  0.39814025  0.99779448  0.04990481    -0.50600
O861        O  0.35399121  0.04549248  0.04124030    -0.73800
O862        O  0.37562398  0.01704621  0.07412538    -0.80600
O863        O  0.42674019  0.07531348  0.02539582    -0.82400
O864        O  0.37142968  0.04306249  0.09293237    -0.78000
O865        O  0.43173391  0.03729023  0.03821912    -0.89600
O866        O  0.33061426  0.08738026  0.04307107    -0.75600
O867        O  0.36657452  0.07678008  0.06960173    -0.85100
O868        O  0.38709743  0.09136029  0.04401534    -0.84800
O869        O  0.42233229  0.05599660  0.07561669    -0.71500
O870        O  0.43991519  0.07152119  0.05202771    -0.83600
Zr871      Zr  0.42956499  0.15001458  0.07316135     2.26400
Zr872      Zr  0.39395010  0.08718881  0.08893993     2.06300
Zr873      Zr  0.43104098  0.11488428  0.04026932     2.10000
Zr874      Zr  0.35707628  0.11891880  0.05767879     1.78800
O875        O  0.47585136  0.10966325  0.02865480    -0.92500
O876        O  0.31261729  0.11107873  0.06929402    -0.40300
O877        O  0.40112130  0.14335281  0.05381090    -0.76900
O878        O  0.38366661  0.12969215  0.07731164    -0.95600
O879        O  0.43887214  0.10786915  0.08500579    -0.88900
O880        O  0.45825872  0.12115562  0.05944281    -0.91700
C881        C  0.33387068  0.06261367  0.03796689     1.02000
C882        C  0.43806087  0.05129029  0.02767004     1.15000
C883        C  0.36809080  0.02025320  0.08640955     1.05700
O884        O  0.34948474  0.09850956  0.09991938    -0.93900
O885        O  0.40461150  0.12133577  0.10610946    -0.89600
O886        O  0.42925012  0.15717672  0.09661721    -0.82800
C887        C  0.41867289  0.14450084  0.10656496     1.12400
O888        O  0.48538601  0.03051731  0.07258032    -0.95900
Zr889      Zr  0.46688799  0.07862469  0.07133180     1.88900
O890        O  0.47944972  0.15720908  0.07845517    -0.72500
O891        O  0.41671309  0.06361787  0.10747214    -0.51800
O892        O  0.48144073  0.06798449  0.09373857    -0.96400
O893        O  0.50538247  0.06717572  0.05624883    -0.53700
O894        O  0.50136770  0.11445245  0.07646406    -0.73000
C895        C  0.50153032  0.14116830  0.07864228     0.99300
O896        O  0.40999529  0.19644420  0.07860363    -0.61800
O897        O  0.40676938  0.13757952  0.02197485    -0.56600
O898        O  0.44812610  0.18427781  0.05785112    -0.93300
O899        O  0.45323067  0.16206422  0.03820250    -0.91800
O900        O  0.34381535  0.14666338  0.03851518    -0.92100
O901        O  0.33240062  0.16239883  0.06376626    -0.90900
C902        C  0.45643335  0.18369415  0.04585515     1.18200
H903        H  0.37943501  0.08882343  0.03531533     0.34100
H904        H  0.37273894  0.14220923  0.08288560     0.45000
H905        H  0.47559495  0.13016321  0.05673631     0.38500
H906        H  0.42569079  0.03839073  0.08014577     0.35000
H907        H  0.30715974  0.09139689  0.06712730     0.26800
H908        H  0.40131199  0.06022879  0.11387347     0.32700
H909        H  0.50227890  0.07043332  0.09377682     0.38600
H910        H  0.35685485  0.16302283  0.03858082     0.33100
H911        H  0.40199638  0.15678329  0.02523078     0.31900
H912        H  0.47484136  0.12346758  0.02137852     0.33600
H913        H  0.51278916  0.08573725  0.05340212     0.32600
H914        H  0.34758985  0.17540237  0.06667816     0.36600
H915        H  0.40262945  0.20392694  0.07018928     0.29300
H916        H  0.37831887  0.99102933  0.05029443     0.33600
H917        H  0.46907120  0.01823724  0.07040696     0.36400
H918        H  0.42180726  0.14070203  0.01536455     0.29000
H919        H  0.39274003  0.19245247  0.08379909     0.41900
H920        H  0.35242381  0.09259787  0.10914213     0.31900
H921        H  0.31791601  0.11047180  0.07869464     0.39600
H922        H  0.49592953  0.05943626  0.04832870     0.31400
H923        H  0.42211829  0.04455689  0.10425128     0.31500
H924        H  0.40778671  0.98854904  0.05740047     0.31700
Zr925      Zr  0.29998784  0.39323295  0.19087425     2.17500
O926        O  0.24865989  0.38780926  0.19176832    -0.50600
O927        O  0.29321998  0.43233841  0.20683740    -0.73800
O928        O  0.28596345  0.36059771  0.20891330    -0.80600
O929        O  0.29906922  0.42676091  0.15574970    -0.82400
O930        O  0.32606372  0.36115475  0.22053474    -0.78000
O931        O  0.26970934  0.41194549  0.17205475    -0.89600
O932        O  0.33521715  0.45532584  0.20901440    -0.75600
O933        O  0.34106466  0.39662267  0.20479261    -0.85100
O934        O  0.33085748  0.42839680  0.18187576    -0.84800
O935        O  0.32274962  0.34668989  0.19134447    -0.71500
O936        O  0.31425951  0.37634799  0.16950614    -0.83600
Zr937      Zr  0.40712257  0.36909617  0.17565447     2.26400
Zr938      Zr  0.36401169  0.35105566  0.20538710     2.06300
Zr939      Zr  0.34604209  0.41096028  0.16083386     2.10000
Zr940      Zr  0.37114181  0.43176278  0.19594060     1.78800
O941        O  0.33019707  0.40046941  0.13855945    -0.92500
O942        O  0.39046339  0.43844458  0.21793726    -0.40300
O943        O  0.38644421  0.41556105  0.17480597    -0.76900
O944        O  0.39489465  0.38666770  0.19701035    -0.95600
O945        O  0.37658725  0.33409682  0.18430813    -0.88900
O946        O  0.36744843  0.36522260  0.16121158    -0.91700
C947        C  0.30903756  0.45176555  0.21192025     1.02000
C948        C  0.27438344  0.42366281  0.16065917     1.15000
C949        C  0.30085593  0.35227264  0.21884155     1.05700
O950        O  0.38551889  0.35683244  0.22697517    -0.93900
O951        O  0.40993426  0.32542863  0.20655658    -0.89600
O952        O  0.43761602  0.34127442  0.18988755    -0.82800
C953        C  0.43353297  0.32603741  0.20011574     1.12400
O954        O  0.28939275  0.31654377  0.16352993    -0.95900
Zr955      Zr  0.33684262  0.33087004  0.17012964     1.88900
O956        O  0.41778126  0.32455012  0.16479870    -0.72500
O957        O  0.34951721  0.30326104  0.21108427    -0.51800
O958        O  0.32156792  0.28714336  0.18053509    -0.96400
O959        O  0.33138331  0.32027421  0.14679235    -0.53700
O960        O  0.37651606  0.29985767  0.16534968    -0.73000
C961        C  0.40328894  0.30185825  0.16337199     0.99300
O962        O  0.45497220  0.38850330  0.17641441    -0.61800
O963        O  0.35307631  0.46125057  0.15688499    -0.56600
O964        O  0.42134976  0.38604512  0.15444617    -0.93300
O965        O  0.38448823  0.40984926  0.14505644    -0.91800
O966        O  0.37125630  0.47802545  0.18545240    -0.92100
O967        O  0.41756118  0.45405135  0.19693474    -0.90900
C968        C  0.40951008  0.39913174  0.14489964     1.18200
H969        H  0.32121384  0.44637365  0.18106348     0.34100
H970        H  0.41169263  0.38818723  0.20241554     0.45000
H971        H  0.37314385  0.35910688  0.15254989     0.38500
H972        H  0.31048594  0.33193909  0.19450237     0.35000
H973        H  0.38657984  0.45851578  0.22015001     0.26800
H974        H  0.35473416  0.29168938  0.20332234     0.32700
H975        H  0.33731205  0.27356034  0.17914418     0.38600
H976        H  0.35404172  0.48774318  0.18875376     0.33100
H977        H  0.37389996  0.46356962  0.15640325     0.31900
H978        H  0.33146442  0.41866040  0.13380266     0.33600
H979        H  0.35081131  0.31712961  0.14340338     0.32600
H980        H  0.42771873  0.44677915  0.18910513     0.36600
H981        H  0.45282208  0.40839320  0.17354918     0.29300
H982        H  0.24330509  0.39251025  0.20092415     0.33600
H983        H  0.27659151  0.32978614  0.16823316     0.36400
H984        H  0.34640640  0.46422419  0.14776657     0.29000
H985        H  0.45969971  0.39003815  0.18586814     0.41900
H986        H  0.39984083  0.37186877  0.22581332     0.31900
H987        H  0.37769571  0.42757723  0.22373711     0.39600
H988        H  0.32525276  0.33837308  0.14280673     0.31400
H989        H  0.36308636  0.29730207  0.21797568     0.31500
H990        H  0.24535836  0.36719646  0.19092099     0.31700
Zr991      Zr  0.14016740  0.53736300  0.05416297     2.17500
O992        O  0.13836316  0.48618193  0.05123354    -0.50600
O993        O  0.18296057  0.53886987  0.04037241    -0.73800
O994        O  0.11796770  0.52453856  0.03297760    -0.80600
O995        O  0.15378793  0.52822480  0.09195832    -0.82400
O996        O  0.11976101  0.56683288  0.02325361    -0.78000
O997        O  0.16241274  0.50716302  0.07218717    -0.89600
O998        O  0.20386819  0.58164633  0.04315004    -0.75600
O999        O  0.14725220  0.58171295  0.04320129    -0.85100
O1000       O  0.16608183  0.56703023  0.06886370    -0.84800
O1001       O  0.09356554  0.55808315  0.04921475    -0.71500
O1002       O  0.11005485  0.54354937  0.07313345    -0.83600
Zr1003     Zr  0.09961526  0.63598244  0.07156265     2.26400
Zr1004     Zr  0.10183759  0.60287290  0.03824441     2.06300
Zr1005     Zr  0.13584010  0.57447271  0.08757692     2.10000
Zr1006     Zr  0.17421338  0.61026106  0.05759758     1.78800
O1007       O  0.11742550  0.55241908  0.10739542    -0.92500
O1008       O  0.18628671  0.63951580  0.03877804    -0.40300
O1009       O  0.14570411  0.61807159  0.07686290    -0.76900
O1010       O  0.12932479  0.63188568  0.05264020    -0.95600
O1011       O  0.07270775  0.60758735  0.05702014    -0.88900
O1012       O  0.09017051  0.59290804  0.08264899    -0.91700
C1013       C  0.20238091  0.55710545  0.03774014     1.02000
C1014       C  0.16372613  0.50800692  0.08501803     1.15000
C1015       C  0.11195334  0.54095093  0.02326162     1.05700
O1016       O  0.11909933  0.62925173  0.01938919    -0.93900
O1017       O  0.07866909  0.65074747  0.03658269    -0.89600
O1018       O  0.08203488  0.67103377  0.05674327    -0.82800
C1019       C  0.07485413  0.67180421  0.04464319     1.12400
O1020       O  0.05019349  0.51468920  0.06686288    -0.95900
Zr1021     Zr  0.06460725  0.56405983  0.06795766     1.88900
O1022       O  0.04924524  0.64193933  0.07426371    -0.72500
O1023       O  0.05840415  0.59163460  0.02643047    -0.51800
O1024       O  0.02730666  0.55406829  0.05204576    -0.96400
O1025       O  0.04473106  0.54838729  0.08880368    -0.53700
O1026       O  0.02814236  0.59921404  0.07221711    -0.73000
C1027       C  0.02731767  0.62607354  0.07406641     0.99300
O1028       O  0.11660355  0.68284860  0.07779297    -0.61800
O1029       O  0.18154643  0.58560173  0.09746477    -0.56600
O1030       O  0.09750395  0.64383882  0.09481059    -0.93300
O1031       O  0.12185132  0.60818961  0.10448414    -0.91800
O1032       O  0.21758773  0.60480822  0.07037121    -0.92100
O1033       O  0.19425165  0.65556184  0.06419974    -0.90900
C1034       C  0.10742414  0.63127197  0.10492894     1.18200
H1035       H  0.18384456  0.55839655  0.07134048     0.34100
H1036       H  0.13242507  0.65026310  0.04877112     0.45000
H1037       H  0.07870230  0.59553646  0.09039873     0.38500
H1038       H  0.08159856  0.54630304  0.04381798     0.35000
H1039       H  0.20727446  0.63979395  0.03861607     0.26800
H1040       H  0.04330847  0.60147401  0.03144322     0.32700
H1041       H  0.02031057  0.57285643  0.04921379     0.38600
H1042       H  0.23296206  0.61053647  0.06433318     0.33100
H1043       H  0.17789041  0.58588178  0.10703932     0.31900
H1044       H  0.13265637  0.55459257  0.11402335     0.33600
H1045       H  0.03850279  0.56580341  0.09342239     0.32600
H1046       H  0.17760544  0.66747318  0.06641120     0.36600
H1047       H  0.13174984  0.67940646  0.08434460     0.29300
H1048       H  0.14827815  0.48240621  0.04283305     0.33600
H1049       H  0.06771234  0.50379360  0.06870705     0.36400
H1050       H  0.19336520  0.56850250  0.09604309     0.29000
H1051       H  0.12694166  0.68969610  0.06997258     0.41900
H1052       H  0.13626112  0.61891940  0.01644647     0.31900
H1053       H  0.18094285  0.62798402  0.03102640     0.39600
H1054       H  0.06124903  0.54154542  0.09391034     0.31400
H1055       H  0.05979698  0.60248999  0.01816208     0.31500
H1056       H  0.11820008  0.48184071  0.04944056     0.31700
Zr1057     Zr  0.29795145  0.88504211  0.80429306     2.17500
O1058       O  0.24751905  0.88615000  0.79896466    -0.50600
O1059       O  0.29281064  0.92567610  0.78951307    -0.73800
O1060       O  0.27014148  0.90530418  0.82367819    -0.80600
O1061       O  0.31714793  0.84254079  0.77368544    -0.82400
O1062       O  0.30009852  0.91160232  0.84101391    -0.78000
O1063       O  0.28244511  0.84635822  0.78902289    -0.89600
O1064       O  0.33455572  0.94941321  0.78969292    -0.75600
O1065       O  0.33011928  0.91499208  0.81597732    -0.85100
O1066       O  0.33851488  0.89161962  0.79013417    -0.84800
O1067       O  0.31025013  0.86083195  0.82438322    -0.71500
O1068       O  0.32049322  0.84032407  0.80018378    -0.83600
Zr1069     Zr  0.40290741  0.85107734  0.81725849     2.26400
Zr1070     Zr  0.34467156  0.89009001  0.83541496     2.06300
Zr1071     Zr  0.36102426  0.84689074  0.78610281     2.10000
Zr1072     Zr  0.36958121  0.92212020  0.80189203     1.78800
O1073       O  0.35695647  0.80307461  0.77359898    -0.92500
O1074       O  0.36681477  0.96639199  0.81423561    -0.40300
O1075       O  0.39264032  0.87737603  0.79767372    -0.76900
O1076       O  0.38458406  0.89786709  0.82149666    -0.95600
O1077       O  0.36342525  0.84419956  0.83131771    -0.88900
O1078       O  0.37088179  0.82177945  0.80553765    -0.91700
C1079       C  0.30887034  0.94607652  0.78579866     1.02000
C1080       C  0.29241947  0.83639284  0.77803478     1.15000
C1081       C  0.27574288  0.91392041  0.83561579     1.05700
O1082       O  0.35634246  0.93694005  0.84378801    -0.93900
O1083       O  0.38373018  0.88009494  0.85061424    -0.89600
O1084       O  0.41565405  0.85196434  0.84007056    -0.82800
C1085       C  0.40619492  0.86454280  0.85031825     1.12400
O1086       O  0.28236800  0.80018209  0.82275728    -0.95900
Zr1087     Zr  0.33112018  0.81554506  0.81964917     1.88900
O1088       O  0.41120833  0.80122156  0.82199086    -0.72500
O1089       O  0.32865134  0.87316831  0.85674995    -0.51800
O1090       O  0.32354687  0.80055520  0.84221288    -0.96400
O1091       O  0.31914420  0.77548441  0.80559402    -0.53700
O1092       O  0.36763864  0.78168348  0.82438455    -0.73000
C1093       C  0.39473129  0.78018340  0.82417320     0.99300
O1094       O  0.45030399  0.86910779  0.82173610    -0.61800
O1095       O  0.37768667  0.87359709  0.76722788    -0.56600
O1096       O  0.43508104  0.83343975  0.80083154    -0.93300
O1097       O  0.40803336  0.82265771  0.78307639    -0.91800
O1098       O  0.39230391  0.93348056  0.78110386    -0.92100
O1099       O  0.41504747  0.94608127  0.80358795    -0.90900
C1100       C  0.43172216  0.82182002  0.78957196     1.18200
H1101       H  0.33368044  0.89872776  0.78154773     0.34100
H1102       H  0.39860921  0.90897810  0.82609301     0.45000
H1103       H  0.37889918  0.80395469  0.80275680     0.38500
H1104       H  0.29378573  0.85806728  0.82984094     0.35000
H1105       H  0.34672993  0.96827365  0.81692864     0.26800
H1106       H  0.32767849  0.89027582  0.86238460     0.32700
H1107       H  0.31206122  0.81590640  0.84620490     0.38600
H1108       H  0.37691401  0.93306986  0.77448683     0.33100
H1109       H  0.39840883  0.87020597  0.76701378     0.31900
H1110       H  0.36545230  0.80734565  0.76494576     0.33600
H1111       H  0.31667664  0.75939610  0.81168140     0.32600
H1112       H  0.42837134  0.93130582  0.80669157     0.36600
H1113       H  0.46284504  0.85224829  0.82166500     0.29300
H1114       H  0.24241230  0.90647422  0.79859751     0.33600
H1115       H  0.27100825  0.81292431  0.81710458     0.36400
H1116       H  0.37026949  0.86317983  0.75950956     0.29000
H1117       H  0.45558328  0.87982298  0.81377330     0.41900
H1118       H  0.36161045  0.93388129  0.85309176     0.31900
H1119       H  0.37720521  0.96268655  0.82250842     0.39600
H1120       H  0.33681324  0.77102140  0.80075523     0.31400
H1121       H  0.30867079  0.86742304  0.85548398     0.31500
H1122       H  0.23771683  0.87892027  0.80685470     0.31700
Zr1123     Zr  0.14856908  0.04399258  0.94080270     2.17500
O1124       O  0.14593698  0.99440322  0.94714068    -0.50600
O1125       O  0.19122843  0.04207864  0.95464525    -0.73800
O1126       O  0.16773406  0.01168955  0.92266275    -0.80600
O1127       O  0.10351211  0.07145741  0.97030242    -0.82400
O1128       O  0.17391993  0.03739804  0.90402173    -0.78000
O1129       O  0.11321105  0.03178850  0.95827489    -0.89600
O1130       O  0.21459068  0.08387032  0.95273751    -0.75600
O1131       O  0.17770306  0.07247339  0.92699198    -0.85100
O1132       O  0.15668876  0.08765013  0.95261247    -0.84800
O1133       O  0.12223784  0.05145047  0.92081410    -0.71500
O1134       O  0.10436241  0.06803497  0.94454627    -0.83600
Zr1135     Zr  0.11462700  0.14535945  0.92277112     2.26400
Zr1136     Zr  0.15083583  0.08195382  0.90743995     2.06300
Zr1137     Zr  0.11258103  0.11172934  0.95617813     2.10000
Zr1138     Zr  0.18649608  0.11511240  0.93879031     1.78800
O1139       O  0.07232621  0.11502750  0.97107661    -0.92500
O1140       O  0.23022787  0.10579829  0.92676457    -0.40300
O1141       O  0.14226070  0.13964873  0.94246569    -0.76900
O1142       O  0.16081357  0.12519284  0.91878317    -0.95600
O1143       O  0.10573867  0.10254633  0.91139137    -0.88900
O1144       O  0.08567957  0.11736088  0.93674265    -0.91700
C1145       C  0.21168172  0.05896881  0.95758266     1.02000
C1146       C  0.10140115  0.04477097  0.96816216     1.15000
C1147       C  0.17576704  0.01436482  0.91044394     1.05700
O1148       O  0.19473590  0.09619827  0.89680454    -0.93900
O1149       O  0.13408898  0.11222077  0.88979669    -0.89600
O1150       O  0.11375542  0.15091505  0.89904739    -0.82800
C1151       C  0.12124785  0.13614263  0.88900907     1.12400
O1152       O  0.05979380  0.02587572  0.92560017    -0.95900
Zr1153     Zr  0.07757591  0.07414804  0.92515773     1.88900
O1154       O  0.06517028  0.15243683  0.91731999    -0.72500
O1155       O  0.13263008  0.05708300  0.88814718    -0.51800
O1156       O  0.06301946  0.05825960  0.90338184    -0.96400
O1157       O  0.03909780  0.06403701  0.94034516    -0.53700
O1158       O  0.04352705  0.10968287  0.91869994    -0.73000
C1159       C  0.04335332  0.13641491  0.91657438     0.99300
O1160       O  0.13208071  0.19242072  0.91739218    -0.61800
O1161       O  0.14333330  0.12917274  0.97365358    -0.56600
O1162       O  0.09632584  0.18096836  0.93755832    -0.93300
O1163       O  0.08946060  0.15949329  0.95720876    -0.91800
O1164       O  0.20007055  0.14238804  0.95813336    -0.92100
O1165       O  0.20886044  0.16004094  0.93344694    -0.90900
C1166       C  0.08703600  0.18096200  0.94937957     1.18200
H1167       H  0.16458188  0.08465477  0.96123675     0.34100
H1168       H  0.17172651  0.13762602  0.91324080     0.45000
H1169       H  0.06812211  0.12648435  0.93917618     0.38500
H1170       H  0.11884754  0.03371285  0.91636032     0.35000
H1171       H  0.22883413  0.11738274  0.91870657     0.26800
H1172       H  0.14938204  0.05089744  0.88301212     0.32700
H1173       H  0.07382540  0.07002057  0.89712509     0.38600
H1174       H  0.22104581  0.14144427  0.95834588     0.33100
H1175       H  0.13173916  0.14348637  0.97834616     0.31900
H1176       H  0.08043323  0.12164429  0.97951781     0.33600
H1177       H  0.02157666  0.06906918  0.93551657     0.32600
H1178       H  0.19294935  0.17372794  0.93294416     0.36600
H1179       H  0.14530991  0.18963582  0.90995005     0.29300
H1180       H  0.16540140  0.98685642  0.94603513     0.33600
H1181       H  0.07499136  0.01486142  0.92996716     0.36400
H1182       H  0.14486526  0.11321786  0.97989619     0.29000
H1183       H  0.11554346  0.20236281  0.91353404     0.41900
H1184       H  0.18992577  0.09744164  0.88735295     0.31900
H1185       H  0.24530919  0.11490130  0.93205403     0.39600
H1186       H  0.04076091  0.07866702  0.94728763     0.31400
H1187       H  0.12409517  0.03944881  0.89151896     0.31500
H1188       H  0.13467111  0.98517756  0.94012766     0.31700
Zr1189     Zr  0.74402455  0.63935889  0.80035911     2.17500
O1190       O  0.79421805  0.63905144  0.79467277    -0.50600
O1191       O  0.74591105  0.59752338  0.78618329    -0.73800
O1192       O  0.77490820  0.61872316  0.81888250    -0.80600
O1193       O  0.71792382  0.67022535  0.77026893    -0.82400
O1194       O  0.74784470  0.61229690  0.83710922    -0.78000
O1195       O  0.75610384  0.67475521  0.78304125    -0.89600
O1196       O  0.70384045  0.57445395  0.78774870    -0.75600
O1197       O  0.71384780  0.60985162  0.81313978    -0.85100
O1198       O  0.70044772  0.63272861  0.78805078    -0.84800
O1199       O  0.73569242  0.66509099  0.82041590    -0.71500
O1200       O  0.72100115  0.68453558  0.79668630    -0.83600
Zr1201     Zr  0.64180628  0.67442754  0.81724957     2.26400
Zr1202     Zr  0.70392014  0.63588896  0.83281730     2.06300
Zr1203     Zr  0.67748225  0.67753190  0.78447813     2.10000
Zr1204     Zr  0.67141213  0.60291744  0.80085555     1.78800
O1205       O  0.68284107  0.72296282  0.77356545    -0.92500
O1206       O  0.67490354  0.55812143  0.81252076    -0.40300
O1207       O  0.64810487  0.64765030  0.79735740    -0.76900
O1208       O  0.66125132  0.62802886  0.82083035    -0.95600
O1209       O  0.68406362  0.68176984  0.82953777    -0.88900
O1210       O  0.67116755  0.70355598  0.80412354    -0.91700
C1211       C  0.72902309  0.57721477  0.78315606     1.02000
C1212       C  0.74194805  0.68141972  0.77257424     1.15000
C1213       C  0.77125494  0.60984219  0.83094528     1.05700
O1214       O  0.69007854  0.59045391  0.84193274    -0.93900
O1215       O  0.66904227  0.64458922  0.84970146    -0.89600
O1216       O  0.63362913  0.67078258  0.84055166    -0.82800
C1217       C  0.64581786  0.65862127  0.85028261     1.12400
O1218       O  0.76233795  0.72724260  0.81554900    -0.95900
Zr1219     Zr  0.71371720  0.71020890  0.81637652     1.88900
O1220       O  0.63484466  0.72355675  0.82367971    -0.72500
O1221       O  0.72869704  0.65239389  0.85239783    -0.51800
O1222       O  0.72884916  0.72116765  0.83866951    -0.96400
O1223       O  0.72211224  0.75277064  0.80348239    -0.53700
O1224       O  0.67836049  0.74386784  0.82337586    -0.73000
C1225       C  0.65150880  0.74474848  0.82519473     0.99300
O1226       O  0.59564950  0.65494788  0.82287389    -0.61800
O1227       O  0.65621710  0.65738816  0.76473795    -0.56600
O1228       O  0.60693441  0.69279988  0.80198786    -0.93300
O1229       O  0.62906934  0.69874644  0.78239620    -0.91800
O1230       O  0.64609691  0.59239594  0.78054387    -0.92100
O1231       O  0.62524724  0.58226139  0.80538135    -0.90900
C1232       C  0.60716557  0.70117708  0.79001293     1.18200
H1233       H  0.70351683  0.62458402  0.77946826     0.34100
H1234       H  0.64824485  0.61709577  0.82608847     0.45000
H1235       H  0.66220349  0.72131517  0.80190749     0.38500
H1236       H  0.75316850  0.66795408  0.82516628     0.35000
H1237       H  0.66849793  0.54371877  0.80609025     0.26800
H1238       H  0.71995276  0.67094844  0.85448725     0.32700
H1239       H  0.72859379  0.74209291  0.83915617     0.38600
H1240       H  0.66057286  0.59332476  0.77352457     0.33100
H1241       H  0.66862588  0.64126214  0.76231275     0.31900
H1242       H  0.68323868  0.73714036  0.78073584     0.33600
H1243       H  0.70302666  0.76009647  0.80124741     0.32600
H1244       H  0.61180543  0.59835231  0.80477367     0.36600
H1245       H  0.58310243  0.67158929  0.82411139     0.29300
H1246       H  0.80051371  0.61919740  0.79582355     0.33600
H1247       H  0.77112144  0.71651217  0.80822349     0.36400
H1248       H  0.63844644  0.64851511  0.76780619     0.29000
H1249       H  0.58881036  0.64578751  0.81470900     0.41900
H1250       H  0.69990287  0.58950451  0.85052134     0.31900
H1251       H  0.69550597  0.55455536  0.81345397     0.39600
H1252       H  0.72979260  0.74579885  0.79501091     0.31400
H1253       H  0.72229964  0.63972250  0.85952253     0.31500
H1254       H  0.80368644  0.64968712  0.80182637     0.31700
Zr1255     Zr  0.89731389  0.48947927  0.93928528     2.17500
O1256       O  0.89349670  0.53957691  0.94483652    -0.50600
O1257       O  0.85533885  0.49167932  0.95351349    -0.73800
O1258       O  0.87815062  0.51879622  0.91990582    -0.80600
O1259       O  0.93577380  0.46629207  0.96962537    -0.82400
O1260       O  0.86352009  0.48886323  0.90374553    -0.78000
O1261       O  0.93453440  0.50326934  0.95575689    -0.89600
O1262       O  0.83438359  0.44851809  0.95321356    -0.75600
O1263       O  0.86683538  0.45704262  0.92817174    -0.85100
O1264       O  0.89433966  0.44701553  0.95250291    -0.84800
O1265       O  0.91976971  0.48007666  0.91848155    -0.71500
O1266       O  0.94413314  0.46915595  0.94189856    -0.83600
Zr1267     Zr  0.93292495  0.38744372  0.92300524     2.26400
Zr1268     Zr  0.88958065  0.44623281  0.90773381     2.06300
Zr1269     Zr  0.94095737  0.42648342  0.95488953     2.10000
Zr1270     Zr  0.86380356  0.41540524  0.94118773     1.78800
O1271       O  0.98883033  0.43660222  0.96255492    -0.92500
O1272       O  0.81912981  0.41221901  0.92928227    -0.40300
O1273       O  0.91002975  0.39480271  0.94371728    -0.76900
O1274       O  0.88523576  0.40422915  0.92046000    -0.95600
O1275       O  0.93647091  0.42873649  0.91005762    -0.88900
O1276       O  0.96353038  0.41893073  0.93445157    -0.91700
C1277       C  0.83574302  0.47437891  0.95700918     1.02000
C1278       C  0.94355098  0.49112135  0.96641381     1.15000
C1279       C  0.86615495  0.51367947  0.90851986     1.05700
O1280       O  0.84327546  0.42987417  0.90041893    -0.93900
O1281       O  0.90165225  0.41225782  0.89077895    -0.89600
O1282       O  0.92932555  0.37794537  0.89983686    -0.82800
C1283       C  0.91695060  0.38982831  0.89010047     1.12400
O1284       O  0.98204878  0.50952096  0.92184889    -0.95900
Zr1285     Zr  0.96629902  0.46050760  0.92135515     1.88900
O1286       O  0.98047254  0.38126045  0.91477799    -0.72500
O1287       O  0.90328858  0.46722493  0.88685510    -0.51800
O1288       O  0.97273789  0.47642652  0.89883120    -0.96400
O1289       O  0.01142252  0.47055721  0.93205329    -0.53700
O1290       O  0.99823212  0.42554525  0.91230347    -0.73000
C1291       C  0.99989904  0.39854192  0.91131049     0.99300
O1292       O  0.91410611  0.33996047  0.91970097    -0.61800
O1293       O  0.92753215  0.40504589  0.97568441    -0.56600
O1294       O  0.95548439  0.35513118  0.93790121    -0.93300
O1295       O  0.96446080  0.37922819  0.95679867    -0.91800
O1296       O  0.85554510  0.39301510  0.96237825    -0.92100
O1297       O  0.84525473  0.36742524  0.94023802    -0.90900
C1298       C  0.96615283  0.35682840  0.94943813     1.18200
H1299       H  0.88708528  0.45102672  0.96117918     0.34100
H1300       H  0.87395069  0.39043230  0.91580458     0.45000
H1301       H  0.98209267  0.41086342  0.93602182     0.38500
H1302       H  0.92181041  0.49688416  0.91322054     0.35000
H1303       H  0.80457112  0.40997625  0.93619694     0.26800
H1304       H  0.88545478  0.46934173  0.88180650     0.32700
H1305       H  0.96759980  0.45994940  0.89329445     0.38600
H1306       H  0.85473778  0.40871243  0.96883561     0.33100
H1307       H  0.93816564  0.41575343  0.98244898     0.31900
H1308       H  0.98744311  0.43665730  0.97225855     0.33600
H1309       H  0.02605914  0.46590828  0.92541236     0.32600
H1310       H  0.86184261  0.35551742  0.93792921     0.36600
H1311       H  0.90724428  0.33409623  0.92846195     0.29300
H1312       H  0.87342883  0.54464631  0.94315075     0.33600
H1313       H  0.96470505  0.52068542  0.92372705     0.36400
H1314       H  0.90751161  0.41070426  0.97700417     0.29000
H1315       H  0.89657652  0.34265959  0.91448913     0.41900
H1316       H  0.84544547  0.42658234  0.89086247     0.31900
H1317       H  0.81579829  0.43146151  0.92578523     0.39600
H1318       H  0.01350876  0.45570880  0.93881822     0.31400
H1319       H  0.90924894  0.48677609  0.88895867     0.31500
H1320       H  0.90432039  0.54951929  0.93793132     0.31700
Zr1321     Zr  0.79550480  0.14326283  0.80382271     2.17500
O1322       O  0.74424746  0.14815765  0.80161390    -0.50600
O1323       O  0.79016117  0.10267703  0.78890910    -0.73800
O1324       O  0.78250203  0.17332061  0.78474066    -0.80600
O1325       O  0.79263308  0.11190246  0.83965586    -0.82400
O1326       O  0.82325105  0.17147574  0.77354096    -0.78000
O1327       O  0.76461408  0.12325490  0.82220485    -0.89600
O1328       O  0.83238631  0.07958982  0.78769772    -0.75600
O1329       O  0.83752361  0.13705193  0.79066329    -0.85100
O1330       O  0.82561064  0.10996152  0.81472214    -0.84800
O1331       O  0.81880621  0.18932039  0.80176596    -0.71500
O1332       O  0.80709235  0.16456874  0.82463934    -0.83600
Zr1333     Zr  0.90041701  0.16917146  0.82016111     2.26400
Zr1334     Zr  0.86129282  0.18203236  0.78870802     2.06300
Zr1335     Zr  0.83812062  0.13152326  0.83532555     2.10000
Zr1336     Zr  0.86672103  0.10354591  0.80144695     1.78800
O1337       O  0.81667469  0.15085824  0.85519502    -0.92500
O1338       O  0.89115932  0.09734960  0.78055257    -0.40300
O1339       O  0.87952451  0.12330402  0.82233525    -0.76900
O1340       O  0.89085390  0.14790842  0.79931194    -0.95600
O1341       O  0.87149605  0.20282171  0.80930806    -0.88900
O1342       O  0.85974415  0.17670428  0.83354032    -0.91700
C1343       C  0.80634633  0.08290574  0.78440874     1.02000
C1344       C  0.76861567  0.11269885  0.83393786     1.15000
C1345       C  0.79783831  0.18048161  0.77479645     1.05700
O1346       O  0.88488000  0.17044736  0.76808659    -0.93900
O1347       O  0.90863327  0.20574427  0.78756674    -0.89600
O1348       O  0.93291966  0.19371341  0.80599148    -0.82800
C1349       C  0.93120717  0.20616050  0.79486417     1.12400
O1350       O  0.78228888  0.22748529  0.82467432    -0.95900
Zr1351     Zr  0.83044506  0.20941319  0.82240072     1.88900
O1352       O  0.90992774  0.21501685  0.82964417    -0.72500
O1353       O  0.84921071  0.22856629  0.78015246    -0.51800
O1354       O  0.82302970  0.25324926  0.81034957    -0.96400
O1355       O  0.81997517  0.22307213  0.84500668    -0.53700
O1356       O  0.86915341  0.24054077  0.82783194    -0.73000
C1357       C  0.89556665  0.23798554  0.83049911     0.99300
O1358       O  0.94788041  0.14864410  0.82122187    -0.61800
O1359       O  0.84606411  0.08417158  0.84402619    -0.56600
O1360       O  0.91252907  0.15704037  0.84227362    -0.93300
O1361       O  0.87508698  0.13481371  0.85175408    -0.91800
O1362       O  0.86401662  0.05770224  0.81225211    -0.92100
O1363       O  0.91161792  0.07805135  0.80253955    -0.90900
C1364       C  0.90009164  0.14529590  0.85197506     1.18200
H1365       H  0.81597134  0.09222367  0.81601007     0.34100
H1366       H  0.90831760  0.14528146  0.79448842     0.45000
H1367       H  0.86465883  0.18443796  0.84203508     0.38500
H1368       H  0.80713414  0.20384656  0.79786347     0.35000
H1369       H  0.88619309  0.07801254  0.77759044     0.26800
H1370       H  0.85504780  0.24188611  0.78717072     0.32700
H1371       H  0.82293682  0.26826424  0.81716407     0.38600
H1372       H  0.85341611  0.04541286  0.80609000     0.33100
H1373       H  0.83641262  0.08423340  0.85266354     0.31900
H1374       H  0.82347961  0.13853958  0.86239166     0.33600
H1375       H  0.83861614  0.22552754  0.84933254     0.32600
H1376       H  0.92513176  0.09193699  0.80624809     0.36600
H1377       H  0.94523301  0.12989830  0.82534121     0.29300
H1378       H  0.73990849  0.14255076  0.79244803     0.33600
H1379       H  0.77032897  0.21321085  0.82020385     0.36400
H1380       H  0.83437861  0.07155337  0.83845443     0.29000
H1381       H  0.95284632  0.14409466  0.81200285     0.41900
H1382       H  0.90252008  0.16048282  0.77066229     0.31900
H1383       H  0.88094832  0.10999673  0.77441316     0.39600
H1384       H  0.81192928  0.20587672  0.84904786     0.31400
H1385       H  0.86300905  0.23172321  0.77298722     0.31500
H1386       H  0.74051523  0.16878228  0.80197420     0.31700
Zr1387     Zr  0.64727119  0.98848241  0.94122961     2.17500
O1388       O  0.64328526  0.03987285  0.94270537    -0.50600
O1389       O  0.68809828  0.99564522  0.95613413    -0.73800
O1390       O  0.61427513  0.00390343  0.95913387    -0.80600
O1391       O  0.67833487  0.98884384  0.90526769    -0.82400
O1392       O  0.60389715  0.96509550  0.97144951    -0.78000
O1393       O  0.66565226  0.01808949  0.92210546    -0.89600
O1394       O  0.71388356  0.95498968  0.95711016    -0.75600
O1395       O  0.65243350  0.94850111  0.95559521    -0.85100
O1396       O  0.68245634  0.95787577  0.93190486    -0.84800
O1397       O  0.60159059  0.96463483  0.94260262    -0.71500
O1398       O  0.62912748  0.97377602  0.92013419    -0.83600
Zr1399     Zr  0.62504851  0.88154793  0.92674511     2.26400
Zr1400     Zr  0.60753244  0.92433981  0.95693215     2.06300
Zr1401     Zr  0.66420445  0.94207842  0.91118626     2.10000
Zr1402     Zr  0.68755910  0.91835356  0.94619920     1.78800
O1403       O  0.66126879  0.95653971  0.88830444    -0.92500
O1404       O  0.69333448  0.90322045  0.96891204    -0.40300
O1405       O  0.67116985  0.90234203  0.92516112    -0.76900
O1406       O  0.64321190  0.89418186  0.94790949    -0.95600
O1407       O  0.58937083  0.91114982  0.93606999    -0.88900
O1408       O  0.61869646  0.92067621  0.91236934    -0.91700
C1409       C  0.70942159  0.98086605  0.96019415     1.02000
C1410       C  0.67619956  0.01340166  0.91040996     1.15000
C1411       C  0.60223985  0.99167839  0.96905256     1.05700
O1412       O  0.62542849  0.90313053  0.97706983    -0.93900
O1413       O  0.58307203  0.87745086  0.95771123    -0.89600
O1414       O  0.60044359  0.85000940  0.94120296    -0.82800
C1415       C  0.58489862  0.85365682  0.95135949     1.12400
O1416       O  0.56571352  0.99853750  0.91961141    -0.95900
Zr1417     Zr  0.58408724  0.95048982  0.92181589     1.88900
O1418       O  0.58106471  0.86976326  0.91583089    -0.72500
O1419       O  0.56072057  0.93250563  0.96648375    -0.51800
O1420       O  0.53806618  0.95802888  0.93213841    -0.96400
O1421       O  0.57573188  0.96145272  0.89872643    -0.53700
O1422       O  0.55546111  0.91064236  0.91480274    -0.73000
C1423       C  0.55864179  0.88390752  0.91305483     0.99300
O1424       O  0.64728934  0.83487724  0.92750283    -0.61800
O1425       O  0.71463548  0.93230249  0.90874185    -0.56600
O1426       O  0.63920223  0.86643196  0.90519717    -0.93300
O1427       O  0.65928115  0.90423257  0.89514256    -0.91800
O1428       O  0.73446501  0.91666967  0.93622240    -0.92100
O1429       O  0.70807355  0.87116155  0.94811416    -0.90900
C1430       C  0.64960192  0.87889058  0.89517396     1.18200
H1431       H  0.70020728  0.96764524  0.93079068     0.34100
H1432       H  0.64549461  0.87749354  0.95327255     0.45000
H1433       H  0.61169526  0.91489311  0.90387688     0.38500
H1434       H  0.58638455  0.97647761  0.94580158     0.35000
H1435       H  0.71348163  0.90688297  0.97103892     0.26800
H1436       H  0.55370206  0.95010935  0.96233243     0.32700
H1437       H  0.52403235  0.95376937  0.92517359     0.38600
H1438       H  0.74786708  0.91811473  0.94368468     0.33100
H1439       H  0.71553293  0.91403883  0.90396059     0.31900
H1440       H  0.64075978  0.95956025  0.88672400     0.33600
H1441       H  0.55600841  0.96865572  0.89837003     0.32600
H1442       H  0.70966789  0.86417230  0.93896132     0.36600
H1443       H  0.66605237  0.83737474  0.92332059     0.29300
H1444       H  0.64943350  0.04475889  0.95173506     0.33600
H1445       H  0.57004492  0.00793862  0.92808446     0.36400
H1446       H  0.72127026  0.94644476  0.90229786     0.29000
H1447       H  0.65182276  0.83175006  0.93688688     0.41900
H1448       H  0.61459584  0.91256539  0.98417920     0.31900
H1449       H  0.68268297  0.91737433  0.97415868     0.39600
H1450       H  0.57484555  0.94291499  0.89418981     0.31400
H1451       H  0.54839309  0.91756317  0.96279031     0.31500
H1452       H  0.62270229  0.04407158  0.94250913     0.31700
Zr1453     Zr  0.24411902  0.38921610  0.80367699     2.17500
O1454       O  0.29487481  0.38960489  0.79917689    -0.50600
O1455       O  0.24161090  0.43199744  0.79012840    -0.73800
O1456       O  0.25582699  0.36519006  0.78260337    -0.80600
O1457       O  0.25380394  0.40523390  0.84140107    -0.82400
O1458       O  0.21305792  0.36736494  0.77327275    -0.78000
O1459       O  0.27605666  0.40933614  0.82164425    -0.89600
O1460       O  0.19774908  0.45167840  0.79196262    -0.75600
O1461       O  0.19906378  0.39559828  0.79299343    -0.85100
O1462       O  0.21456964  0.41581052  0.81829673    -0.84800
O1463       O  0.22371762  0.34247613  0.79943692    -0.71500
O1464       O  0.23903222  0.36074864  0.82314753    -0.83600
Zr1465     Zr  0.14546881  0.34803148  0.82222816     2.26400
Zr1466     Zr  0.17829119  0.34986767  0.78875431     2.06300
Zr1467     Zr  0.20752748  0.38677382  0.83734618     2.10000
Zr1468     Zr  0.17054133  0.42293136  0.80734626     1.78800
O1469       O  0.23089087  0.37343772  0.85779231    -0.92500
O1470       O  0.13855044  0.43448154  0.78931766    -0.40300
O1471       O  0.16307351  0.39479478  0.82673544    -0.76900
O1472       O  0.14924343  0.37747383  0.80317030    -0.95600
O1473       O  0.17474852  0.32143456  0.80780567    -0.88900
O1474       O  0.18963262  0.34053702  0.83310356    -0.91700
C1475       C  0.22270242  0.45045462  0.78693263     1.02000
C1476       C  0.27493203  0.41251831  0.83440495     1.15000
C1477       C  0.23879175  0.35885317  0.77310829     1.05700
O1478       O  0.14950561  0.36788732  0.77074420    -0.93900
O1479       O  0.13161340  0.32525799  0.78699185    -0.89600
O1480       O  0.11038477  0.32978538  0.80692081    -0.82800
C1481       C  0.11026414  0.32187329  0.79483647     1.12400
O1482       O  0.26789618  0.29947821  0.81538674    -0.95900
Zr1483     Zr  0.21912906  0.31510374  0.81859861     1.88900
O1484       O  0.14171759  0.29768481  0.82648581    -0.72500
O1485       O  0.19116098  0.30690452  0.77687350    -0.51800
O1486       O  0.22749531  0.27455580  0.80424379    -0.96400
O1487       O  0.23954481  0.30147984  0.83966907    -0.53700
O1488       O  0.18584851  0.27892743  0.82462911    -0.73000
C1489       C  0.15924465  0.27686119  0.82686504     0.99300
O1490       O  0.09757635  0.36287240  0.82826499    -0.61800
O1491       O  0.19409752  0.43295808  0.84609666    -0.56600
O1492       O  0.13904267  0.34917394  0.84584082    -0.93300
O1493       O  0.17622302  0.37239943  0.85497056    -0.91800
O1494       O  0.17832207  0.46555622  0.82039866    -0.92100
O1495       O  0.12648889  0.44572535  0.81411067    -0.90900
C1496       C  0.15286806  0.35872399  0.85577620     1.18200
H1497       H  0.22331741  0.43359904  0.82058365     0.34100
H1498       H  0.13074998  0.38028481  0.79930362     0.45000
H1499       H  0.18772108  0.32938590  0.84097401     0.38500
H1500       H  0.23531373  0.32998793  0.79417253     0.35000
H1501       H  0.13967855  0.45530543  0.78841550     0.26800
H1502       H  0.19071251  0.29180296  0.78357735     0.32700
H1503       H  0.22794513  0.25794822  0.81014685     0.38600
H1504       H  0.18212594  0.48061021  0.81390655     0.33100
H1505       H  0.17316385  0.43242157  0.84673788     0.31900
H1506       H  0.22722798  0.38932068  0.86394857     0.33600
H1507       H  0.22486416  0.28981883  0.84396601     0.32600
H1508       H  0.11985548  0.43450306  0.82169392     0.36600
H1509       H  0.10018874  0.37894890  0.83440910     0.29300
H1510       H  0.29678696  0.39853961  0.79043842     0.33600
H1511       H  0.27947237  0.31652751  0.81710366     0.36400
H1512       H  0.20068949  0.43271770  0.85533160     0.29000
H1513       H  0.08971330  0.37179002  0.82025855     0.41900
H1514       H  0.15430090  0.35568326  0.76314162     0.31900
H1515       H  0.14816027  0.42699897  0.78138049     0.39600
H1516       H  0.24008849  0.31918285  0.84489530     0.31400
H1517       H  0.17470253  0.30291750  0.77112628     0.31500
H1518       H  0.30021671  0.36953267  0.79777225     0.31700
Zr1519     Zr  0.39581498  0.54470712  0.94011439     2.17500
O1520       O  0.39948740  0.49347385  0.94226796    -0.50600
O1521       O  0.35618837  0.54219462  0.95620572    -0.73800
O1522       O  0.42626690  0.53243543  0.95953838    -0.80600
O1523       O  0.36796702  0.53804053  0.90352551    -0.82400
O1524       O  0.43996611  0.57416101  0.96876599    -0.78000
O1525       O  0.37675630  0.51225359  0.92198110    -0.89600
O1526       O  0.33539550  0.58559477  0.95712570    -0.75600
O1527       O  0.39189117  0.58800122  0.95234959    -0.85100
O1528       O  0.36221482  0.57425603  0.92894887    -0.84800
O1529       O  0.44234535  0.56674657  0.94060043    -0.71500
O1530       O  0.41492306  0.55474562  0.91866384    -0.83600
Zr1531     Zr  0.42315629  0.64819281  0.92136658     2.26400
Zr1532     Zr  0.43752936  0.61074141  0.95275677     2.06300
Zr1533     Zr  0.38193085  0.58572052  0.90785748     2.10000
Zr1534     Zr  0.35789094  0.61669910  0.94150167     1.78800
O1535       O  0.38879595  0.56716148  0.88570868    -0.92500
O1536       O  0.35372238  0.64478018  0.96151666    -0.40300
O1537       O  0.37643348  0.62821355  0.92025887    -0.76900
O1538       O  0.40296851  0.64020209  0.94252149    -0.95600
O1539       O  0.45713425  0.61885591  0.93179800    -0.88900
O1540       O  0.42797427  0.60606432  0.90858675    -0.91700
C1541       C  0.33775819  0.55986459  0.96091114     1.02000
C1542       C  0.36826759  0.51471969  0.90978219     1.15000
C1543       C  0.43860246  0.54716738  0.96869874     1.05700
O1544       O  0.42300574  0.63179191  0.97355440    -0.93900
O1545       O  0.46007423  0.65823448  0.95415435    -0.89600
O1546       O  0.44870808  0.68127999  0.93537722    -0.82800
C1547       C  0.46084865  0.68031201  0.94667653     1.12400
O1548       O  0.47680561  0.52825781  0.91477802    -0.95900
Zr1549     Zr  0.46066568  0.57628881  0.91935544     1.88900
O1550       O  0.46904443  0.65543420  0.91130246    -0.72500
O1551       O  0.48671386  0.60270490  0.95912332    -0.51800
O1552       O  0.50427689  0.56350880  0.93075362    -0.96400
O1553       O  0.46905519  0.56414160  0.89636205    -0.53700
O1554       O  0.49265710  0.61348436  0.91295448    -0.73000
C1555       C  0.49124335  0.63987077  0.91016261     0.99300
O1556       O  0.40237976  0.69539913  0.91976426    -0.61800
O1557       O  0.33164353  0.59464174  0.90431252    -0.56600
O1558       O  0.41011533  0.65878914  0.89913736    -0.93300
O1559       O  0.38705068  0.62078175  0.89053770    -0.91800
O1560       O  0.31024186  0.61092998  0.93258563    -0.92100
O1561       O  0.33103322  0.66001167  0.93777149    -0.90900
C1562       C  0.39818124  0.64546401  0.88967078     1.18200
H1563       H  0.34430016  0.56468410  0.92802425     0.34100
H1564       H  0.40109847  0.65787880  0.94725056     0.45000
H1565       H  0.43530438  0.60998740  0.89994216     0.38500
H1566       H  0.45659971  0.55481576  0.94457298     0.35000
H1567       H  0.33365144  0.64285507  0.96419677     0.26800
H1568       H  0.49795072  0.61513718  0.95332453     0.32700
H1569       H  0.51194857  0.58167098  0.93404387     0.38600
H1570       H  0.30367466  0.59226545  0.93571206     0.33100
H1571       H  0.33075462  0.61401938  0.90067120     0.31900
H1572       H  0.37042340  0.57011798  0.88118650     0.33600
H1573       H  0.47587155  0.58173709  0.89219292     0.32600
H1574       H  0.34545269  0.67405604  0.93513909     0.36600
H1575       H  0.38330608  0.69232856  0.91595431     0.29300
H1576       H  0.39548124  0.48946741  0.95162034     0.33600
H1577       H  0.46023383  0.51619918  0.91674666     0.36400
H1578       H  0.32647150  0.58217587  0.89685471     0.29000
H1579       H  0.39849290  0.70114173  0.92895484     0.41900
H1580       H  0.44091039  0.63780241  0.97779295     0.31900
H1581       H  0.36446388  0.63392714  0.96818109     0.39600
H1582       H  0.44995685  0.56105570  0.89258361     0.31400
H1583       H  0.48842654  0.61138917  0.96795356     0.31500
H1584       H  0.41991840  0.48920541  0.94115398     0.31700
Zr1585     Zr  0.13464649  0.48461340  0.44049063     2.17500
O1586       O  0.12613470  0.53515368  0.44335627    -0.50600
O1587       O  0.17590244  0.49072666  0.45489883    -0.73800
O1588       O  0.10591566  0.49460993  0.46068913    -0.80600
O1589       O  0.15776652  0.49440033  0.40374651    -0.82400
O1590       O  0.09818021  0.45230201  0.47050834    -0.78000
O1591       O  0.15391762  0.51804735  0.42320442    -0.89600
O1592       O  0.20192475  0.45019371  0.45442545    -0.75600
O1593       O  0.14430914  0.44197231  0.45241084    -0.85100
O1594       O  0.16878317  0.45797898  0.42817503    -0.84800
O1595       O  0.09021570  0.45899344  0.44222875    -0.71500
O1596       O  0.11269111  0.47414961  0.41962184    -0.83600
Zr1597     Zr  0.11364374  0.38020866  0.42160081     2.26400
Zr1598     Zr  0.10081461  0.41581017  0.45403482     2.06300
Zr1599     Zr  0.14661586  0.44617005  0.40766935     2.10000
Zr1600     Zr  0.17873702  0.41606695  0.44024718     1.78800
O1601       O  0.13211208  0.46520263  0.38647464    -0.92500
O1602       O  0.19030675  0.39097974  0.46045060    -0.40300
O1603       O  0.15810208  0.40409106  0.41941484    -0.76900
O1604       O  0.13580885  0.38920493  0.44237889    -0.95600
O1605       O  0.07924838  0.40637709  0.43355206    -0.88900
O1606       O  0.10280854  0.42168190  0.40934871    -0.91700
C1607       C  0.19713204  0.47545255  0.45853078     1.02000
C1608       C  0.15990217  0.51673642  0.41069911     1.15000
C1609       C  0.09595805  0.47926517  0.47016877     1.05700
O1610       O  0.12362168  0.39283743  0.47263185    -0.93900
O1611       O  0.07764225  0.36872899  0.45400694    -0.89600
O1612       O  0.09241870  0.34521606  0.43574002    -0.82800
C1613       C  0.07873262  0.34643632  0.44660869     1.12400
O1614       O  0.04642130  0.49377826  0.41835556    -0.95900
Zr1615     Zr  0.06935416  0.44809792  0.42157692     1.88900
O1616       O  0.06676223  0.36847653  0.41373375    -0.72500
O1617       O  0.05448417  0.41627839  0.46467981    -0.51800
O1618       O  0.02708621  0.45804530  0.43453439    -0.96400
O1619       O  0.05533999  0.45771412  0.39893879    -0.53700
O1620       O  0.03946918  0.40742156  0.41747516    -0.73000
C1621       C  0.04281285  0.38131055  0.41430116     0.99300
O1622       O  0.13670308  0.33428793  0.41881914    -0.61800
O1623       O  0.19612873  0.44176133  0.40116476    -0.56600
O1624       O  0.12511089  0.37165556  0.39881960    -0.93300
O1625       O  0.14416725  0.41169135  0.39019259    -0.91800
O1626       O  0.22358264  0.42520983  0.42917763    -0.92100
O1627       O  0.20440786  0.37203244  0.43604521    -0.90900
C1628       C  0.13547541  0.38615767  0.38936914     1.18200
H1629       H  0.18581738  0.46883732  0.42680859     0.34100
H1630       H  0.13969377  0.37159192  0.44684298     0.45000
H1631       H  0.09484515  0.41707972  0.40087542     0.38500
H1632       H  0.07565667  0.46968267  0.44671358     0.35000
H1633       H  0.21048396  0.39537424  0.46217326     0.26800
H1634       H  0.05836784  0.41302887  0.47411585     0.32700
H1635       H  0.02531724  0.44160073  0.44046628     0.38600
H1636       H  0.23726817  0.42926060  0.43631414     0.33100
H1637       H  0.19957300  0.42112164  0.40050988     0.31900
H1638       H  0.14951578  0.46517021  0.38103597     0.33600
H1639       H  0.04849821  0.43942143  0.39540593     0.32600
H1640       H  0.22348902  0.37461381  0.43992359     0.36600
H1641       H  0.15398934  0.33811266  0.41362021     0.29300
H1642       H  0.13256306  0.53957943  0.45239464     0.33600
H1643       H  0.05804677  0.50721921  0.42352236     0.36400
H1644       H  0.19657642  0.44843486  0.39195961     0.29000
H1645       H  0.14403907  0.32951199  0.42765704     0.41900
H1646       H  0.11148559  0.39766555  0.48025338     0.31900
H1647       H  0.17986300  0.40133887  0.46740560     0.39600
H1648       H  0.07323612  0.46137333  0.39417507     0.31400
H1649       H  0.04763454  0.43607882  0.46418945     0.31500
H1650       H  0.10524849  0.53726746  0.44361221     0.31700
Zr1651     Zr  0.28958980  0.64244651  0.30700249     2.17500
O1652       O  0.23840975  0.64850608  0.30494764    -0.50600
O1653       O  0.28643943  0.59970213  0.29323846    -0.73800
O1654       O  0.27743631  0.66812701  0.28639138    -0.80600
O1655       O  0.28354878  0.62166072  0.34439517    -0.82400
O1656       O  0.31904604  0.66719903  0.27556730    -0.78000
O1657       O  0.25849108  0.62237217  0.32521962    -0.89600
O1658       O  0.32861175  0.57664483  0.29470157    -0.75600
O1659       O  0.33291937  0.63295403  0.29532185    -0.85100
O1660       O  0.31849984  0.61320322  0.32075374    -0.84800
O1661       O  0.31323871  0.68752937  0.30282559    -0.71500
O1662       O  0.29891768  0.66960023  0.32661996    -0.83600
Zr1663     Zr  0.39259428  0.67451671  0.32374901     2.26400
Zr1664     Zr  0.35688433  0.67704252  0.29106484     2.06300
Zr1665     Zr  0.32922318  0.64077536  0.33999939     2.10000
Zr1666     Zr  0.36067189  0.60305568  0.30888332     1.78800
O1667       O  0.30653166  0.66481684  0.35843886    -0.92500
O1668       O  0.38861585  0.58796940  0.29000558    -0.40300
O1669       O  0.37169259  0.62949395  0.32840177    -0.76900
O1670       O  0.38508791  0.64658169  0.30441065    -0.95600
O1671       O  0.36437346  0.70426447  0.31031429    -0.88900
O1672       O  0.35056606  0.68516071  0.33572691    -0.91700
C1673       C  0.30340739  0.57935300  0.29007964     1.02000
C1674       C  0.26118962  0.61673499  0.33773567     1.15000
C1675       C  0.29305848  0.67489807  0.27644130     1.05700
O1676       O  0.38109388  0.65382735  0.27282826    -0.93900
O1677       O  0.40503509  0.69961345  0.28920918    -0.89600
O1678       O  0.42730109  0.69358431  0.30876262    -0.82800
C1679       C  0.42700473  0.70224422  0.29684204     1.12400
O1680       O  0.27330810  0.72938184  0.32591650    -0.95900
Zr1681     Zr  0.32192235  0.71375671  0.32220632     1.88900
O1682       O  0.40063016  0.72339164  0.32926319    -0.72500
O1683       O  0.34921041  0.72031902  0.27864888    -0.51800
O1684       O  0.30828653  0.75094785  0.30688700    -0.96400
O1685       O  0.31266880  0.73528206  0.34362732    -0.53700
O1686       O  0.35960846  0.74735295  0.32559629    -0.73000
C1687       C  0.38598602  0.74619224  0.32857474     0.99300
O1688       O  0.44000553  0.65510246  0.32711589    -0.61800
O1689       O  0.33865772  0.59605246  0.35100842    -0.56600
O1690       O  0.40150951  0.67214387  0.34702261    -0.93300
O1691       O  0.36486434  0.64897804  0.35673743    -0.91800
O1692       O  0.35397574  0.56017326  0.32173983    -0.92100
O1693       O  0.40463932  0.57896060  0.31469107    -0.90900
C1694       C  0.38872994  0.66186884  0.35700976     1.18200
H1695       H  0.30887438  0.59589234  0.32296368     0.34100
H1696       H  0.40296781  0.64256466  0.30015157     0.45000
H1697       H  0.35441425  0.69549686  0.34372201     0.38500
H1698       H  0.30208439  0.70089680  0.29790169     0.35000
H1699       H  0.38431345  0.56759693  0.28892308     0.26800
H1700       H  0.35729564  0.73546126  0.28424373     0.32700
H1701       H  0.31398624  0.76879367  0.31125509     0.38600
H1702       H  0.34434068  0.54675538  0.31574441     0.33100
H1703       H  0.33142030  0.59884972  0.36004998     0.31900
H1704       H  0.31204895  0.65374409  0.36627856     0.33600
H1705       H  0.33144349  0.73938824  0.34753264     0.32600
H1706       H  0.41309795  0.59077800  0.32171451     0.36600
H1707       H  0.43836850  0.64219650  0.33470872     0.29300
H1708       H  0.23314246  0.63762219  0.29698618     0.33600
H1709       H  0.26161258  0.71632304  0.32057438     0.36400
H1710       H  0.32536150  0.58239562  0.34696357     0.29000
H1711       H  0.44302933  0.64228393  0.31952229     0.41900
H1712       H  0.38967438  0.66939795  0.26773219     0.31900
H1713       H  0.37933130  0.59715880  0.28240198     0.39600
H1714       H  0.30495286  0.71977668  0.34905083     0.31400
H1715       H  0.36238113  0.71881526  0.27110838     0.31500
H1716       H  0.23542288  0.66858518  0.30254971     0.31700
Zr1717     Zr  0.89001524  0.03685376  0.43838715     2.17500
O1718       O  0.88706521  0.98641197  0.44308440    -0.50600
O1719       O  0.84754432  0.03755603  0.45238662    -0.73800
O1720       O  0.91924743  0.02496992  0.45827249    -0.80600
O1721       O  0.86471469  0.03006466  0.40151675    -0.82400
O1722       O  0.91996308  0.06755445  0.46774028    -0.78000
O1723       O  0.87112001  0.00447779  0.42022287    -0.89600
O1724       O  0.83083202  0.08251105  0.45278433    -0.75600
O1725       O  0.88813026  0.08143585  0.44992666    -0.85100
O1726       O  0.85969928  0.06820136  0.42623456    -0.84800
O1727       O  0.93832966  0.05532307  0.43984678    -0.71500
O1728       O  0.91138883  0.04322915  0.41711961    -0.83600
Zr1729     Zr  0.92783336  0.13496200  0.41856282     2.26400
Zr1730     Zr  0.93546171  0.10049804  0.45126241     2.06300
Zr1731     Zr  0.88200668  0.07643758  0.40539364     2.10000
Zr1732     Zr  0.85777449  0.11184639  0.43791495     1.78800
O1733       O  0.88591913  0.05656736  0.38332734    -0.92500
O1734       O  0.85202488  0.13996511  0.45784123    -0.40300
O1735       O  0.87935224  0.12012061  0.41694391    -0.76900
O1736       O  0.90464872  0.13132094  0.43941304    -0.95600
O1737       O  0.95781108  0.10408177  0.43054092    -0.88900
O1738       O  0.92999650  0.09161241  0.40659730    -0.91700
C1739       C  0.83020756  0.05667583  0.45656884     1.02000
C1740       C  0.86330632  0.00709322  0.40794149     1.15000
C1741       C  0.92758202  0.04167035  0.46762150     1.05700
O1742       O  0.92918441  0.12564679  0.47196576    -0.93900
O1743       O  0.95897243  0.14776482  0.45193193    -0.89600
O1744       O  0.95097771  0.16919212  0.43235966    -0.82800
C1745       C  0.96113915  0.16907000  0.44401560     1.12400
O1746       O  0.96984052  0.01004449  0.41924591    -0.95900
Zr1747     Zr  0.95888419  0.06042725  0.41877156     1.88900
O1748       O  0.97682833  0.13778586  0.41155105    -0.72500
O1749       O  0.98193838  0.08532124  0.45898352    -0.51800
O1750       O  0.00289567  0.04820689  0.43000543    -0.96400
O1751       O  0.96631685  0.04229356  0.39657117    -0.53700
O1752       O  0.99438181  0.09300978  0.41111049    -0.73000
C1753       C  0.99680049  0.11977538  0.40957492     0.99300
O1754       O  0.91211581  0.18325552  0.41413582    -0.61800
O1755       O  0.83319867  0.09058639  0.40096505    -0.56600
O1756       O  0.92132908  0.14304057  0.39554182    -0.93300
O1757       O  0.89063957  0.10992196  0.38779563    -0.91800
O1758       O  0.81155061  0.11011782  0.42724924    -0.92100
O1759       O  0.83626998  0.15802427  0.43406909    -0.90900
C1760       C  0.90665619  0.13157114  0.38641239     1.18200
H1761       H  0.84108980  0.06008587  0.42519417     0.34100
H1762       H  0.90358350  0.14962339  0.44365548     0.45000
H1763       H  0.93846744  0.09363908  0.39802943     0.38500
H1764       H  0.95172598  0.04304865  0.44419852     0.35000
H1765       H  0.83146137  0.13935347  0.45976921     0.26800
H1766       H  0.99534791  0.09270337  0.45236368     0.32700
H1767       H  0.01804301  0.05082496  0.42339747     0.38600
H1768       H  0.79774032  0.11390405  0.43436818     0.33100
H1769       H  0.83154816  0.09021910  0.39127054     0.31900
H1770       H  0.86702944  0.05937360  0.37926085     0.33600
H1771       H  0.97506395  0.05804699  0.39166107     0.32600
H1772       H  0.84912987  0.16737770  0.42776556     0.36600
H1773       H  0.89508136  0.18128965  0.40851934     0.29300
H1774       H  0.87820656  0.98529094  0.45188128     0.33600
H1775       H  0.95854261  0.00260035  0.42665433     0.36400
H1776       H  0.82153511  0.07443756  0.40390280     0.29000
H1777       H  0.90445666  0.19020182  0.42261295     0.41900
H1778       H  0.91257167  0.13809775  0.47048732     0.31900
H1779       H  0.86082659  0.12836114  0.46483142     0.39600
H1780       H  0.94703070  0.04052379  0.39280865     0.31400
H1781       H  0.98543242  0.09701144  0.46690968     0.31500
H1782       H  0.90687927  0.98005283  0.44442528     0.31700
Zr1783     Zr  0.73990628  0.88353579  0.30133096     2.17500
O1784       O  0.79140526  0.88173244  0.29945160    -0.50600
O1785       O  0.74085723  0.92596939  0.28769082    -0.73800
O1786       O  0.75440190  0.85948354  0.28080464    -0.80600
O1787       O  0.74409658  0.90483594  0.33855968    -0.82400
O1788       O  0.71297338  0.85838016  0.27003681    -0.78000
O1789       O  0.76994423  0.90433576  0.31967376    -0.89600
O1790       O  0.69674887  0.94541699  0.28754780    -0.75600
O1791       O  0.69689982  0.88765137  0.28875535    -0.85100
O1792       O  0.70772061  0.91211346  0.31377434    -0.84800
O1793       O  0.72133785  0.83593035  0.29738892    -0.71500
O1794       O  0.73164509  0.85827441  0.32142067    -0.83600
Zr1795     Zr  0.63977159  0.84435653  0.31751871     2.26400
Zr1796     Zr  0.67742198  0.84109739  0.28512381     2.06300
Zr1797     Zr  0.69801831  0.88635188  0.33352620     2.10000
Zr1798     Zr  0.66559364  0.91656379  0.30101633     1.78800
O1799       O  0.71720262  0.87834303  0.35543718    -0.92500
O1800       O  0.63996451  0.92399423  0.28048811    -0.40300
O1801       O  0.65538051  0.89206170  0.32117833    -0.76900
O1802       O  0.64573007  0.87032348  0.29751237    -0.95600
O1803       O  0.67121232  0.81592171  0.30493221    -0.88900
O1804       O  0.68212533  0.83918302  0.32999387    -0.91700
C1805       C  0.72272977  0.94454262  0.28381774     1.02000
C1806       C  0.76684137  0.90969647  0.33218081     1.15000
C1807       C  0.73931883  0.85222844  0.27077607     1.05700
O1808       O  0.65516659  0.85187175  0.26411805    -0.93900
O1809       O  0.63024886  0.81709436  0.28292182    -0.89600
O1810       O  0.60718314  0.82260410  0.30236609    -0.82800
C1811       C  0.60838045  0.81372963  0.29048627     1.12400
O1812       O  0.76459165  0.80247055  0.31774797    -0.95900
Zr1813     Zr  0.71374210  0.81164907  0.31735624     1.88900
O1814       O  0.63599757  0.79489861  0.32313655    -0.72500
O1815       O  0.69272729  0.79558994  0.27625285    -0.51800
O1816       O  0.72670342  0.76956976  0.30481266    -0.96400
O1817       O  0.72640904  0.79668151  0.33952653    -0.53700
O1818       O  0.67972475  0.77515131  0.32210652    -0.73000
C1819       C  0.65292729  0.77370568  0.32396213     0.99300
O1820       O  0.59096920  0.85959838  0.32123915    -0.61800
O1821       O  0.68255613  0.93395377  0.33944434    -0.56600
O1822       O  0.62914900  0.84666983  0.34069949    -0.93300
O1823       O  0.66395302  0.87248562  0.35023865    -0.91800
O1824       O  0.66667286  0.96183098  0.31252122    -0.92100
O1825       O  0.61860000  0.93686639  0.30427499    -0.90900
C1826       C  0.64118544  0.85770349  0.35077347     1.18200
H1827       H  0.71581262  0.93039575  0.31568612     0.34100
H1828       H  0.62779455  0.87215977  0.29299052     0.45000
H1829       H  0.67912327  0.82907655  0.33807346     0.38500
H1830       H  0.73422095  0.82355653  0.29273174     0.35000
H1831       H  0.64744073  0.94184482  0.27682542     0.26800
H1832       H  0.67689133  0.78256315  0.27818709     0.32700
H1833       H  0.70990801  0.76552628  0.29928316     0.38600
H1834       H  0.66357768  0.97615499  0.30558623     0.33100
H1835       H  0.66201181  0.93216213  0.34122600     0.31900
H1836       H  0.71288032  0.89584438  0.36044429     0.33600
H1837       H  0.70898794  0.78836442  0.34328396     0.32600
H1838       H  0.60634708  0.92040930  0.30615464     0.36600
H1839       H  0.59241139  0.87606264  0.32724288     0.29300
H1840       H  0.79580821  0.89173267  0.29117518     0.33600
H1841       H  0.77199322  0.81452080  0.32494545     0.36400
H1842       H  0.69115092  0.93751846  0.34816682     0.29000
H1843       H  0.58481622  0.86795161  0.31279400     0.41900
H1844       H  0.65571246  0.83384270  0.25913420     0.31900
H1845       H  0.64720765  0.90906884  0.27450482     0.39600
H1846       H  0.72917746  0.81450978  0.34449954     0.31400
H1847       H  0.69213118  0.79795202  0.26660033     0.31500
H1848       H  0.79609337  0.86163538  0.29767776     0.31700
Zr1849     Zr  0.39251738  0.99167577  0.43844174     2.17500
O1850       O  0.39126614  0.04189550  0.44395098    -0.50600
O1851       O  0.35128350  0.99454925  0.45313667    -0.73800
O1852       O  0.37310977  0.02073240  0.41915473    -0.80600
O1853       O  0.43239853  0.96992566  0.46842282    -0.82400
O1854       O  0.35865584  0.99022744  0.40320273    -0.78000
O1855       O  0.43087715  0.00604849  0.45401019    -0.89600
O1856       O  0.32870504  0.95208004  0.45330059    -0.75600
O1857       O  0.36105080  0.95989013  0.42758526    -0.85100
O1858       O  0.38836523  0.94984429  0.45197409    -0.84800
O1859       O  0.41513093  0.98085645  0.41786305    -0.71500
O1860       O  0.43853957  0.97001960  0.44111963    -0.83600
Zr1861     Zr  0.42640728  0.88807707  0.42282392     2.26400
Zr1862     Zr  0.38399398  0.94768757  0.40744680     2.06300
Zr1863     Zr  0.43426195  0.92828217  0.45454429     2.10000
Zr1864     Zr  0.35707863  0.91865378  0.44078411     1.78800
O1865       O  0.48098635  0.93702773  0.46388755    -0.92500
O1866       O  0.31328147  0.91849576  0.42805644    -0.40300
O1867       O  0.40296437  0.89705986  0.44334126    -0.76900
O1868       O  0.37896230  0.90602632  0.42033263    -0.95600
O1869       O  0.43065492  0.92898805  0.40953065    -0.88900
O1870       O  0.45722870  0.91915738  0.43426634    -0.91700
C1871       C  0.33137595  0.97792944  0.45698719     1.02000
C1872       C  0.44001835  0.99457850  0.46476926     1.15000
C1873       C  0.36094445  0.01511708  0.40788305     1.05700
O1874       O  0.33790469  0.93130256  0.39983351    -0.93900
O1875       O  0.39302440  0.91293621  0.39075266    -0.89600
O1876       O  0.42010282  0.87798103  0.39974576    -0.82800
C1877       C  0.40728673  0.88994205  0.39013709     1.12400
O1878       O  0.47717316  0.00892958  0.41949543    -0.95900
Zr1879     Zr  0.46118770  0.96012904  0.42088509     1.88900
O1880       O  0.47399686  0.88081750  0.41422330    -0.72500
O1881       O  0.39615053  0.97310729  0.38745381    -0.51800
O1882       O  0.47237758  0.97372737  0.39843662    -0.96400
O1883       O  0.50380286  0.96873963  0.43382378    -0.53700
O1884       O  0.49333668  0.92456172  0.41270543    -0.73000
C1885       C  0.49426320  0.89765674  0.41121864     0.99300
O1886       O  0.40779356  0.84019347  0.42090830    -0.61800
O1887       O  0.41525970  0.90916706  0.47488662    -0.56600
O1888       O  0.44878985  0.85618443  0.43814326    -0.93300
O1889       O  0.45733718  0.88092053  0.45693325    -0.91800
O1890       O  0.34688970  0.89601825  0.46169321    -0.92100
O1891       O  0.33691328  0.87131242  0.44011635    -0.90900
C1892       C  0.45904768  0.85822073  0.44977072     1.18200
H1893       H  0.38151699  0.95419586  0.46068478     0.34100
H1894       H  0.36742605  0.89236946  0.41571704     0.45000
H1895       H  0.47548084  0.91062533  0.43596253     0.38500
H1896       H  0.41739808  0.99748984  0.41249905     0.35000
H1897       H  0.29818683  0.91496113  0.43459204     0.26800
H1898       H  0.41529622  0.96616688  0.38506744     0.32700
H1899       H  0.46783906  0.95686968  0.39303464     0.38600
H1900       H  0.35509945  0.90877503  0.46841486     0.33100
H1901       H  0.40968488  0.88954770  0.47265762     0.31900
H1902       H  0.47901866  0.93250151  0.47332957     0.33600
H1903       H  0.51924459  0.97008303  0.42727742     0.32600
H1904       H  0.35065318  0.85995592  0.43495480     0.36600
H1905       H  0.39840055  0.83667201  0.42943958     0.29300
H1906       H  0.37151198  0.04801225  0.44223010     0.33600
H1907       H  0.46538596  0.01924389  0.42599471     0.36400
H1908       H  0.43196889  0.90698959  0.48069560     0.29000
H1909       H  0.39192976  0.84162375  0.41456817     0.41900
H1910       H  0.33323481  0.94361796  0.39228219     0.31900
H1911       H  0.31025612  0.93839283  0.42537521     0.39600
H1912       H  0.50759543  0.95076309  0.43847398     0.31400
H1913       H  0.38348532  0.96529139  0.38058971     0.31500
H1914       H  0.40266108  0.05116631  0.43704019     0.31700
Zr1915     Zr  0.23894129  0.13812721  0.30028543     2.17500
O1916       O  0.28852651  0.13781269  0.29357548    -0.50600
O1917       O  0.24096851  0.09514922  0.28650939    -0.73800
O1918       O  0.27059682  0.11919417  0.31859613    -0.80600
O1919       O  0.21342433  0.17865809  0.27006938    -0.82400
O1920       O  0.24375518  0.11192623  0.33681693    -0.78000
O1921       O  0.25151155  0.17422893  0.28354150    -0.89600
O1922       O  0.19842696  0.07335962  0.28824011    -0.75600
O1923       O  0.20928948  0.10933064  0.31355914    -0.85100
O1924       O  0.19551174  0.13112819  0.28811158    -0.84800
O1925       O  0.23113330  0.16462158  0.32029175    -0.71500
O1926       O  0.21607503  0.18307735  0.29665651    -0.83600
Zr1927     Zr  0.13707437  0.17360781  0.31767208     2.26400
Zr1928     Zr  0.19975484  0.13597121  0.33309728     2.06300
Zr1929     Zr  0.17273431  0.17590339  0.28457773     2.10000
Zr1930     Zr  0.16666465  0.10194328  0.30156336     1.78800
O1931       O  0.17543064  0.21823577  0.27106024    -0.92500
O1932       O  0.17231617  0.05836514  0.31404028    -0.40300
O1933       O  0.14336819  0.14656595  0.29781730    -0.76900
O1934       O  0.15661653  0.12738009  0.32152473    -0.95600
O1935       O  0.17982428  0.18145432  0.32945185    -0.88900
O1936       O  0.16620648  0.20241562  0.30411413    -0.91700
C1937       C  0.22367553  0.07498783  0.28362148     1.02000
C1938       C  0.23920024  0.18405692  0.27310798     1.15000
C1939       C  0.26717690  0.11032851  0.33062350     1.05700
O1940       O  0.18398944  0.09135657  0.34245651    -0.93900
O1941       O  0.16788892  0.15101270  0.35030965    -0.89600
O1942       O  0.12999753  0.17341161  0.34132744    -0.82800
C1943       C  0.14416289  0.16415591  0.35122106     1.12400
O1944       O  0.25782481  0.22617852  0.31631097    -0.95900
Zr1945     Zr  0.20898997  0.20971964  0.31606558     1.88900
O1946       O  0.12961428  0.22299864  0.32311397    -0.72500
O1947       O  0.22382756  0.15252474  0.35290603    -0.51800
O1948       O  0.22334807  0.22810769  0.33743969    -0.96400
O1949       O  0.21743679  0.24813340  0.30068694    -0.53700
O1950       O  0.17310443  0.24344680  0.32258129    -0.73000
C1951       C  0.14618409  0.24430762  0.32426973     0.99300
O1952       O  0.09050270  0.15491166  0.32325650    -0.61800
O1953       O  0.15284439  0.14922247  0.26627398    -0.56600
O1954       O  0.10192052  0.19061438  0.30231359    -0.93300
O1955       O  0.12559843  0.20008531  0.28340177    -0.91800
O1956       O  0.13944677  0.08954983  0.28203725    -0.92100
O1957       O  0.12152757  0.07974609  0.30670822    -0.90900
C1958       C  0.10328449  0.20144148  0.29080982     1.18200
H1959       H  0.19866710  0.12314700  0.27949765     0.34100
H1960       H  0.14382832  0.11656044  0.32694285     0.45000
H1961       H  0.15739223  0.22011161  0.30169698     0.38500
H1962       H  0.24872466  0.16767237  0.32492675     0.35000
H1963       H  0.16715589  0.04309776  0.30780246     0.26800
H1964       H  0.22736947  0.13543972  0.35827782     0.32700
H1965       H  0.20680430  0.22503822  0.34323497     0.38600
H1966       H  0.14110622  0.06870313  0.28131979     0.33100
H1967       H  0.13902758  0.16233330  0.26218464     0.31900
H1968       H  0.16470212  0.21347494  0.26298855     0.33600
H1969       H  0.21241850  0.26557927  0.30558146     0.32600
H1970       H  0.10837315  0.09578128  0.30827814     0.36600
H1971       H  0.08389797  0.14526418  0.31517005     0.29300
H1972       H  0.29527320  0.11824324  0.29513131     0.33600
H1973       H  0.26853451  0.21138493  0.31148378     0.36400
H1974       H  0.16847535  0.14784328  0.25981337     0.29000
H1975       H  0.09427320  0.13926701  0.32946762     0.41900
H1976       H  0.19922989  0.08577387  0.34862809     0.31900
H1977       H  0.19301942  0.05608961  0.31528566     0.39600
H1978       H  0.20237712  0.24621195  0.29396568     0.31400
H1979       H  0.24281566  0.15885618  0.35003442     0.31500
H1980       H  0.29843485  0.14946878  0.30024010     0.31700
Zr1981     Zr  0.64196870  0.54552488  0.44182895     2.17500
O1982       O  0.63921408  0.49534366  0.44709877    -0.50600
O1983       O  0.68394368  0.54208847  0.45621827    -0.73800
O1984       O  0.66249209  0.51482859  0.42344701    -0.80600
O1985       O  0.59444490  0.57075009  0.47066343    -0.82400
O1986       O  0.67000064  0.54153586  0.40520885    -0.78000
O1987       O  0.60567148  0.53170233  0.45846736    -0.89600
O1988       O  0.70901197  0.58281918  0.45449397    -0.75600
O1989       O  0.67233432  0.57417895  0.42878233    -0.85100
O1990       O  0.64982884  0.58820990  0.45450016    -0.84800
O1991       O  0.61638340  0.55470939  0.42174310    -0.71500
O1992       O  0.59759288  0.56983834  0.44511497    -0.83600
Zr1993     Zr  0.61108079  0.64805931  0.42499655     2.26400
Zr1994     Zr  0.64637837  0.58519927  0.40914604     2.06300
Zr1995     Zr  0.60527661  0.61230591  0.45768812     2.10000
Zr1996     Zr  0.68111165  0.61577665  0.44134529     1.78800
O1997       O  0.56416387  0.61181959  0.47215659    -0.92500
O1998       O  0.72419783  0.60915810  0.42843073    -0.40300
O1999       O  0.63689907  0.64052074  0.44504608    -0.76900
O2000       O  0.65681411  0.62721427  0.42124137    -0.95600
O2001       O  0.60147032  0.60659733  0.41257458    -0.88900
O2002       O  0.58004599  0.62002958  0.43793331    -0.91700
C2003       C  0.70515003  0.55799735  0.45925164     1.02000
C2004       C  0.59289448  0.54414717  0.46821279     1.15000
C2005       C  0.67160732  0.51829024  0.41144404     1.05700
O2006       O  0.68987093  0.60056294  0.39851093    -0.93900
O2007       O  0.63165133  0.61694267  0.39180935    -0.89600
O2008       O  0.61342098  0.65599396  0.40162461    -0.82800
C2009       C  0.62043993  0.64166254  0.39140763     1.12400
O2010       O  0.55283632  0.53029405  0.42649556    -0.95900
Zr2011     Zr  0.57168021  0.57810771  0.42554679     1.88900
O2012       O  0.56341517  0.65773240  0.41771519    -0.72500
O2013       O  0.62976693  0.55702064  0.39057603    -0.51800
O2014       O  0.55810401  0.56119011  0.40381394    -0.96400
O2015       O  0.53034990  0.56995093  0.43933630    -0.53700
O2016       O  0.53991591  0.61574814  0.41833299    -0.73000
C2017       C  0.54119758  0.64255027  0.41629018     0.99300
O2018       O  0.63339403  0.69375110  0.42131566    -0.61800
O2019       O  0.63264863  0.62923888  0.47641527    -0.56600
O2020       O  0.58910530  0.68214633  0.43940065    -0.93300
O2021       O  0.58088244  0.65968292  0.45867549    -0.91800
O2022       O  0.69705110  0.64247947  0.46047491    -0.92100
O2023       O  0.70366406  0.66114333  0.43718474    -0.90900
C2024       C  0.57854751  0.68141233  0.45097389     1.18200
H2025       H  0.65738191  0.58458901  0.46314787     0.34100
H2026       H  0.66824752  0.63978614  0.41599777     0.45000
H2027       H  0.56238172  0.62938058  0.43996501     0.38500
H2028       H  0.61305738  0.53726348  0.41701112     0.35000
H2029       H  0.73957211  0.61691113  0.43399581     0.26800
H2030       H  0.61037223  0.56406660  0.38875529     0.32700
H2031       H  0.55944691  0.57798386  0.39806926     0.38600
H2032       H  0.69723349  0.62876994  0.46780189     0.33100
H2033       H  0.64614440  0.64294498  0.47264007     0.31900
H2034       H  0.56844043  0.62571124  0.47917953     0.33600
H2035       H  0.51760536  0.58626031  0.43774199     0.32600
H2036       H  0.68771171  0.67452715  0.43590268     0.36600
H2037       H  0.61753831  0.70684636  0.41932225     0.29300
H2038       H  0.65901603  0.48835127  0.44675384     0.33600
H2039       H  0.56735852  0.51942361  0.43139799     0.36400
H2040       H  0.61918875  0.64110141  0.48149077     0.29000
H2041       H  0.64028783  0.69978205  0.43007626     0.41900
H2042       H  0.68993612  0.59057572  0.38994154     0.31900
H2043       H  0.72768841  0.58848393  0.42838326     0.39600
H2044       H  0.53729722  0.57277531  0.44842667     0.31400
H2045       H  0.64117331  0.56338657  0.38298703     0.31500
H2046       H  0.62971860  0.48643764  0.43945946     0.31700
Zr2047     Zr  0.79483824  0.39041530  0.30556593     2.17500
O2048       O  0.74491803  0.39162703  0.29936738    -0.50600
O2049       O  0.79164969  0.43256542  0.29151763    -0.73800
O2050       O  0.76430023  0.40910198  0.32438695    -0.80600
O2051       O  0.81827722  0.34547253  0.27578660    -0.82400
O2052       O  0.79293048  0.42044195  0.34161450    -0.78000
O2053       O  0.78055193  0.35338306  0.28925898    -0.89600
O2054       O  0.83376261  0.45563205  0.29221726    -0.75600
O2055       O  0.82555998  0.42097626  0.31764837    -0.85100
O2056       O  0.83697297  0.39646438  0.29242315    -0.84800
O2057       O  0.80455789  0.36637413  0.32594717    -0.71500
O2058       O  0.81753118  0.34520145  0.30229935    -0.83600
Zr2059     Zr  0.89769546  0.35722046  0.32186159     2.26400
Zr2060     Zr  0.83690664  0.39663582  0.33762631     2.06300
Zr2061     Zr  0.85993800  0.35147816  0.28943060     2.10000
Zr2062     Zr  0.86709747  0.42701980  0.30465498     1.78800
O2063       O  0.85828376  0.30724867  0.27711159    -0.92500
O2064       O  0.86687942  0.47183712  0.31657178    -0.40300
O2065       O  0.89022900  0.38205433  0.30162772    -0.76900
O2066       O  0.87875499  0.40393959  0.32499768    -0.95600
O2067       O  0.85622872  0.35058559  0.33459375    -0.88900
O2068       O  0.86767750  0.32716569  0.30932389    -0.91700
C2069       C  0.80816906  0.45292887  0.28813322     1.02000
C2070       C  0.79221634  0.34210814  0.27892787     1.15000
C2071       C  0.76868982  0.41965940  0.33608699     1.05700
O2072       O  0.85359537  0.44206803  0.34584426    -0.93900
O2073       O  0.87077487  0.38519542  0.35472745    -0.89600
O2074       O  0.90616727  0.35948026  0.34519985    -0.82800
C2075       C  0.89377150  0.37069226  0.35513357     1.12400
O2076       O  0.77690306  0.30573960  0.32328183    -0.95900
Zr2077     Zr  0.82613094  0.32087472  0.32222250     1.88900
O2078       O  0.90566171  0.30872645  0.32851512    -0.72500
O2079       O  0.81496378  0.38178409  0.35818022    -0.51800
O2080       O  0.81461792  0.30846945  0.34478305    -0.96400
O2081       O  0.81484319  0.27921181  0.30907479    -0.53700
O2082       O  0.86264834  0.28707005  0.32806620    -0.73000
C2083       C  0.88961892  0.28705293  0.32969867     0.99300
O2084       O  0.94415393  0.37780710  0.32605845    -0.61800
O2085       O  0.87708435  0.37698881  0.27030156    -0.56600
O2086       O  0.93118304  0.33601801  0.30693330    -0.93300
O2087       O  0.90772000  0.32836103  0.28775987    -0.91800
O2088       O  0.89092617  0.43459955  0.28374121    -0.92100
O2089       O  0.91346059  0.44928108  0.30620318    -0.90900
C2090       C  0.92992603  0.32604069  0.29523077     1.18200
H2091       H  0.83282672  0.40368917  0.28377614     0.34100
H2092       H  0.89199044  0.41534830  0.32993058     0.45000
H2093       H  0.87642524  0.30930187  0.30706191     0.38500
H2094       H  0.78746047  0.36358890  0.33097120     0.35000
H2095       H  0.86721044  0.48650964  0.30965506     0.26800
H2096       H  0.81192005  0.39934025  0.36334324     0.32700
H2097       H  0.81654027  0.28761207  0.34510251     0.38600
H2098       H  0.87554714  0.43625542  0.27716127     0.33100
H2099       H  0.89564935  0.36818392  0.26826279     0.31900
H2100       H  0.86550813  0.31210113  0.26827582     0.33600
H2101       H  0.82175187  0.26289915  0.31425942     0.32600
H2102       H  0.92455808  0.43680674  0.31208739     0.36600
H2103       H  0.95027812  0.38533211  0.31745730     0.29300
H2104       H  0.73858246  0.41128748  0.30110656     0.33600
H2105       H  0.76758276  0.31543866  0.31582038     0.36400
H2106       H  0.86452759  0.37085994  0.26303717     0.29000
H2107       H  0.94035234  0.39491056  0.33143364     0.41900
H2108       H  0.84389127  0.44454766  0.35439214     0.31900
H2109       H  0.84766162  0.47334465  0.32041610     0.39600
H2110       H  0.82785131  0.28017019  0.30146232     0.31400
H2111       H  0.79571833  0.37516925  0.35583044     0.31500
H2112       H  0.73513779  0.38006431  0.30605580     0.31700
C2113       C  0.72478543  0.48271493  0.38897668     0.13400
C2114       C  0.70715971  0.46706289  0.38044197     0.00300
C2115       C  0.67835440  0.46429655  0.38395041     0.15300
C2116       C  0.66718851  0.47835500  0.39513206     0.24700
C2117       C  0.68460189  0.49496962  0.40337259    -0.41600
C2118       C  0.71366972  0.49651886  0.40019370     0.31800
C2119       C  0.71869111  0.45469972  0.36773115     0.00400
F2120       F  0.66053247  0.44951630  0.37604190    -0.13900
F2121       F  0.73099346  0.51336304  0.40743197    -0.14400
C2122       C  0.71976385  0.42522313  0.36558710     0.15300
C2123       C  0.73308504  0.41368822  0.35430091     0.24700
C2124       C  0.74536643  0.43124490  0.34465804    -0.41500
C2125       C  0.74303987  0.46075362  0.34652672     0.31700
C2126       C  0.72994534  0.47229958  0.35785184     0.13400
F2127       F  0.70972703  0.40745138  0.37491958    -0.13900
F2128       F  0.75531984  0.47849321  0.33777561    -0.14400
F2129       F  0.73604170  0.38517549  0.35333826    -0.16700
F2130       F  0.72917566  0.50083969  0.35938307    -0.15300
F2131       F  0.75279470  0.48540695  0.38622203    -0.15300
F2132       F  0.63877802  0.47783984  0.39722842    -0.16700
C2133       C  0.05622291  0.26365102  0.28094478     0.13400
C2134       C  0.02921216  0.25448988  0.28510624     0.00300
C2135       C  0.02649399  0.22626093  0.28929586     0.15300
C2136       C  0.05023379  0.20818598  0.28992666     0.24700
C2137       C  0.07757265  0.21788047  0.28659761    -0.41600
C2138       C  0.08008790  0.24558398  0.28168925     0.31800
C2139       C  0.00445036  0.27468475  0.28615212     0.00400
F2140       F  0.00109793  0.21664357  0.29363394    -0.13900
F2141       F  0.10600474  0.25591078  0.27853124    -0.14400
C2142       C  0.97813656  0.26886709  0.28009864     0.15300
C2143       C  0.95419054  0.28631163  0.28234734     0.24700
C2144       C  0.95593501  0.31013277  0.29069701    -0.41500
C2145       C  0.98271710  0.31659403  0.29621757     0.31700
C2146       C  0.00641442  0.29904468  0.29408979     0.13400
F2147       F  0.97544038  0.24583136  0.27220255    -0.13900
F2148       F  0.98593093  0.33970292  0.30404715    -0.14400
F2149       F  0.92896411  0.27890948  0.27694236    -0.16700
F2150       F  0.03098978  0.30508201  0.30045343    -0.15300
F2151       F  0.05970201  0.29046910  0.27652324    -0.15300
F2152       F  0.04663843  0.18133363  0.29430798    -0.16700
C2153       C  0.48039698  0.78073613  0.45349203     0.13400
C2154       C  0.50801946  0.78259216  0.45869821     0.00300
C2155       C  0.51776816  0.80960362  0.46265272     0.15300
C2156       C  0.50103125  0.83411734  0.46075467     0.24700
C2157       C  0.47429853  0.83235300  0.45464917    -0.41600
C2158       C  0.46400132  0.80520871  0.45133734     0.31800
C2159       C  0.52751009  0.75710239  0.45849522     0.00400
F2160       F  0.54399005  0.81241514  0.46798915    -0.13900
F2161       F  0.43829503  0.80240495  0.44546057    -0.14400
C2162       C  0.55347751  0.75841730  0.45173056     0.15300
C2163       C  0.57040144  0.73418629  0.44996815     0.24700
C2164       C  0.56228646  0.70759747  0.45503780    -0.41500
C2165       C  0.53685306  0.70639665  0.46231434     0.31700
C2166       C  0.51963571  0.73079420  0.46396189     0.13400
F2167       F  0.56190175  0.78300359  0.44611571    -0.13900
F2168       F  0.52776250  0.68133407  0.46718948    -0.14400
F2169       F  0.59461798  0.73671273  0.44287408    -0.16700
F2170       F  0.49498671  0.72857895  0.47074552    -0.15300
F2171       F  0.46984930  0.75534152  0.44963132    -0.15300
F2172       F  0.51190367  0.85977054  0.46398869    -0.16700
C2173       C  0.31924361  0.10354032  0.35896157     0.13400
C2174       C  0.31878538  0.07419660  0.36146569     0.00300
C2175       C  0.30571477  0.05669977  0.35192499     0.15300
C2176       C  0.29180788  0.06834959  0.34083893     0.24700
C2177       C  0.29081963  0.09783682  0.33874749    -0.41600
C2178       C  0.30532011  0.11515440  0.34786783     0.31800
C2179       C  0.32948072  0.06223335  0.37445567     0.00400
F2180       F  0.30541488  0.02821393  0.35359089    -0.13900
F2181       F  0.30389727  0.14371576  0.34666670    -0.14400
C2182       C  0.31103029  0.04716796  0.38276298     0.15300
C2183       C  0.32069733  0.03498119  0.39460850     0.24700
C2184       C  0.34922749  0.03729538  0.39870792    -0.41500
C2185       C  0.36757503  0.05312214  0.39061853     0.31700
C2186       C  0.35780778  0.06564981  0.37876531     0.13400
F2187       F  0.28348816  0.04365550  0.37926071    -0.13900
F2188       F  0.39559596  0.05441708  0.39359929    -0.14400
F2189       F  0.30241593  0.01907650  0.40172149    -0.16700
F2190       F  0.37657866  0.07962555  0.37108189    -0.15300
F2191       F  0.33125061  0.12132321  0.36784309    -0.15300
F2192       F  0.27735512  0.05086012  0.33263432    -0.16700
C2193       C  0.64957828  0.70014600  0.33789249     0.13400
C2194       C  0.62141066  0.69959045  0.34232603     0.00300
C2195       C  0.60217909  0.72008024  0.33780712     0.15300
C2196       C  0.61192287  0.74336937  0.33079360     0.24700
C2197       C  0.64107920  0.74610401  0.32799316    -0.41600
C2198       C  0.65929684  0.72304998  0.33063849     0.31800
C2199       C  0.61453513  0.68277103  0.35404845     0.00400
F2200       F  0.57449320  0.71905633  0.34141660    -0.13900
F2201       F  0.68716083  0.72359173  0.32729047    -0.14400
C2202       C  0.60675122  0.69716833  0.36559879     0.15300
C2203       C  0.60720653  0.68339862  0.37761375     0.24700
C2204       C  0.61564464  0.65481142  0.37839843    -0.41500
C2205       C  0.62070601  0.63966602  0.36662441     0.31700
C2206       C  0.62040966  0.65367548  0.35455464     0.13400
F2207       F  0.60116007  0.72538804  0.36548380    -0.13900
F2208       F  0.62685311  0.61157613  0.36674915    -0.14400
F2209       F  0.60101354  0.69883722  0.38852641    -0.16700
F2210       F  0.62721656  0.63918797  0.34344239    -0.15300
F2211       F  0.66860653  0.68031796  0.34188828    -0.15300
F2212       F  0.59309779  0.76412281  0.32770516    -0.16700
C2213       C  0.58811924  0.83544320  0.37653173     0.13400
C2214       C  0.59503757  0.85413042  0.38675043     0.00300
C2215       C  0.62092966  0.86864513  0.38636060     0.15300
C2216       C  0.63726097  0.86823910  0.37494642     0.24700
C2217       C  0.62786101  0.85314704  0.36378597    -0.41600
C2218       C  0.60432390  0.83496700  0.36508961     0.31800
C2219       C  0.57177387  0.86540302  0.39487252     0.00400
F2220       F  0.62845392  0.88613106  0.39638209    -0.13900
F2221       F  0.59556324  0.81825446  0.35500178    -0.14400
C2222       C  0.55529062  0.84788961  0.40292875     0.15300
C2223       C  0.52982218  0.85807472  0.40828155     0.24700
C2224       C  0.52074643  0.88596041  0.40565324    -0.41500
C2225       C  0.53769629  0.90337550  0.39770556     0.31700
C2226       C  0.56287570  0.89325910  0.39245828     0.13400
F2227       F  0.56352901  0.82083260  0.40531443    -0.13900
F2228       F  0.52924659  0.92990284  0.39435792    -0.14400
F2229       F  0.51406983  0.84067177  0.41591568    -0.16700
F2230       F  0.57761789  0.91020716  0.38417247    -0.15300
F2231       F  0.56360158  0.82049066  0.37688975    -0.15300
F2232       F  0.66082215  0.88462002  0.37453484    -0.16700
C2233       C  0.93824122  0.17069309  0.35829794     0.13400
C2234       C  0.91371172  0.18217252  0.35259562     0.00300
C2235       C  0.88683933  0.17253949  0.35659702     0.15300
C2236       C  0.88451855  0.15350571  0.36693323     0.24700
C2237       C  0.90895707  0.14453606  0.37351896    -0.41600
C2238       C  0.93586003  0.15208943  0.36880085     0.31800
C2239       C  0.91540395  0.20760762  0.34438479     0.00400
F2240       F  0.86275014  0.18381163  0.35145984    -0.13900
F2241       F  0.95974176  0.14273061  0.37489670    -0.14400
C2242       C  0.90018391  0.20883959  0.33256647     0.15300
C2243       C  0.89340501  0.23498930  0.32713106     0.24700
C2244       C  0.90262246  0.26002972  0.33325760    -0.41500
C2245       C  0.92119959  0.25859249  0.34398128     0.31700
C2246       C  0.92711307  0.23250585  0.34971372     0.13400
F2247       F  0.88965936  0.18488351  0.32702879    -0.13900
F2248       F  0.93102111  0.28255405  0.34977394    -0.14400
F2249       F  0.87642580  0.23595024  0.31635966    -0.16700
F2250       F  0.94144548  0.23199727  0.36128906    -0.15300
F2251       F  0.96435514  0.17905965  0.35431473    -0.15300
F2252       F  0.85840226  0.14634685  0.37140549    -0.16700
C2253       C  0.06003972  0.16749181  0.40395361     0.13400
C2254       C  0.07614238  0.15074649  0.39529950     0.00300
C2255       C  0.06712217  0.12317866  0.39225934     0.15300
C2256       C  0.04181895  0.11292885  0.39725992     0.24700
C2257       C  0.02459464  0.13025552  0.40520532    -0.41600
C2258       C  0.03424756  0.15739972  0.40881369     0.31800
C2259       C  0.09927302  0.16279875  0.38741475     0.00400
F2260       F  0.08173662  0.10683164  0.38356966    -0.13900
F2261       F  0.01870389  0.17417332  0.41695558    -0.14400
C2262       C  0.12496732  0.14795431  0.38633064     0.15300
C2263       C  0.14106256  0.15004879  0.37490551     0.24700
C2264       C  0.13190500  0.16762109  0.36453629    -0.41500
C2265       C  0.10900373  0.18625015  0.36677877     0.31700
C2266       C  0.09260264  0.18364306  0.37811317     0.13400
F2267       F  0.13245825  0.12864131  0.39556309    -0.13900
F2268       F  0.10121385  0.20559599  0.35763998    -0.14400
F2269       F  0.16389271  0.13269051  0.37355668    -0.16700
F2270       F  0.06827349  0.19894514  0.37916476    -0.15300
F2271       F  0.06888504  0.19383389  0.40734364    -0.15300
F2272       F  0.03340924  0.08658562  0.39360666    -0.16700
C2273       C  0.81224144  0.97016232  0.38510389     0.13400
C2274       C  0.83064846  0.95737899  0.37588020     0.00300
C2275       C  0.85983023  0.95669728  0.37900717     0.15300
C2276       C  0.87026800  0.96956131  0.39065240     0.24700
C2277       C  0.85193667  0.98327790  0.39964961    -0.41600
C2278       C  0.82267701  0.98290095  0.39672503     0.31800
C2279       C  0.81913865  0.94575375  0.36297608     0.00400
F2280       F  0.87858838  0.94553896  0.37029360    -0.13900
F2281       F  0.80428196  0.99716326  0.40460286    -0.14400
C2282       C  0.80372780  0.96325613  0.35427358     0.15300
C2283       C  0.78922851  0.95185217  0.34330036     0.24700
C2284       C  0.78995424  0.92260313  0.34048234    -0.41500
C2285       C  0.80656556  0.90531003  0.34879624     0.31700
C2286       C  0.82129830  0.91675209  0.35972935     0.13400
F2287       F  0.80183916  0.99147578  0.35667328    -0.13900
F2288       F  0.80671929  0.87685353  0.34694167    -0.14400
F2289       F  0.77258055  0.96919939  0.33597941    -0.16700
F2290       F  0.83606476  0.89904368  0.36768967    -0.15300
F2291       F  0.78399385  0.97135806  0.38259367    -0.15300
F2292       F  0.89872609  0.97095994  0.39253823    -0.16700
C2293       C  0.50512697  0.72524798  0.29559214     0.13400
C2294       C  0.50504481  0.74759043  0.28649766     0.00300
C2295       C  0.47920830  0.75375245  0.28002908     0.15300
C2296       C  0.45411077  0.73843479  0.28281761     0.24700
C2297       C  0.45406169  0.71644038  0.29218821    -0.41600
C2298       C  0.48030052  0.70985900  0.29830597     0.31800
C2299       C  0.53126312  0.76567123  0.28477710     0.00400
F2300       F  0.47813202  0.77504956  0.27113536    -0.13900
F2301       F  0.48200559  0.68864490  0.30723277    -0.14400
C2302       C  0.55784476  0.75378024  0.28130422     0.15300
C2303       C  0.58300121  0.77004617  0.28183867     0.24700
C2304       C  0.58221721  0.79858844  0.28588214    -0.41500
C2305       C  0.55545778  0.81084613  0.28845608     0.31700
C2306       C  0.53044326  0.79472665  0.28790046     0.13400
F2307       F  0.55959535  0.72609581  0.27779023    -0.13900
F2308       F  0.55370893  0.83837636  0.29225163    -0.14400
F2309       F  0.60830026  0.75731264  0.27936818    -0.16700
F2310       F  0.50557046  0.80719162  0.29136824    -0.15300
F2311       F  0.52907069  0.71920511  0.30246959    -0.15300
F2312       F  0.42959461  0.74617019  0.27681963    -0.16700
C2313       C  0.38651366  0.85237577  0.35939844     0.13400
C2314       C  0.41328974  0.84636239  0.35388532     0.00300
C2315       C  0.43785548  0.85737739  0.35974245     0.15300
C2316       C  0.43586677  0.87209197  0.37158359     0.24700
C2317       C  0.40927681  0.87647385  0.37738748    -0.41600
C2318       C  0.38456947  0.86756035  0.37105791     0.31800
C2319       C  0.41533680  0.82369371  0.34405015     0.00400
F2320       F  0.46376369  0.85238223  0.35439666    -0.13900
F2321       F  0.35877258  0.87164163  0.37670315    -0.14400
C2322       C  0.39730150  0.82410174  0.33310435     0.15300
C2323       C  0.38901321  0.79873432  0.32731079     0.24700
C2324       C  0.39990988  0.77291144  0.33201920    -0.41500
C2325       C  0.42169433  0.77314442  0.34145882     0.31700
C2326       C  0.42907798  0.79839585  0.34758364     0.13400
F2327       F  0.38504136  0.84868752  0.32914282    -0.13900
F2328       F  0.43336013  0.74870772  0.34595945    -0.14400
F2329       F  0.36870451  0.79931383  0.31784911    -0.16700
F2330       F  0.44667772  0.79738409  0.35814410    -0.15300
F2331       F  0.36241536  0.84136620  0.35418300    -0.15300
F2332       F  0.45982175  0.88148661  0.37756212    -0.16700
C2333       C  0.49058793  0.68175784  0.39453333     0.13400
C2334       C  0.46448698  0.67278718  0.39970692     0.00300
C2335       C  0.46390600  0.65874480  0.41183325     0.15300
C2336       C  0.48919935  0.65039571  0.41778584     0.24700
C2337       C  0.51524557  0.65664202  0.41181963    -0.41600
C2338       C  0.51587719  0.67395749  0.40066129     0.31800
C2339       C  0.43966319  0.67138972  0.39095551     0.00400
F2340       F  0.43885917  0.65059085  0.41715916    -0.13900
F2341       F  0.54088894  0.68060069  0.39486737    -0.14400
C2342       C  0.42929856  0.64452787  0.38736774     0.15300
C2343       C  0.41069034  0.64167052  0.37685116     0.24700
C2344       C  0.40276277  0.66549505  0.36963081    -0.41500
C2345       C  0.41153741  0.69255588  0.37364043     0.31700
C2346       C  0.42974860  0.69555223  0.38436306     0.13400
F2347       F  0.43949110  0.62071909  0.39315056    -0.13900
F2348       F  0.40348009  0.71583801  0.36677330    -0.14400
F2349       F  0.40280313  0.61538506  0.37287987    -0.16700
F2350       F  0.43905994  0.72172174  0.38778398    -0.15300
F2351       F  0.49179583  0.69496601  0.38272241    -0.15300
F2352       F  0.48826082  0.63482977  0.42895761    -0.16700
C2353       C  0.98526033  0.24604902  0.44444196     0.13400
C2354       C  0.01017751  0.24500318  0.45202551     0.00300
C2355       C  0.01761379  0.21904627  0.45796134     0.15300
C2356       C  0.00098130  0.19459647  0.45602102     0.24700
C2357       C  0.97656166  0.19547654  0.44804821    -0.41600
C2358       C  0.96866493  0.22180235  0.44254015     0.31800
C2359       C  0.02913190  0.27048366  0.45278292     0.00400
F2360       F  0.04134142  0.21721608  0.46546302    -0.13900
F2361       F  0.94501319  0.22407453  0.43499256    -0.14400
C2362       C  0.01857358  0.29712845  0.45682337     0.15300
C2363       C  0.03509256  0.32177972  0.45553221     0.24700
C2364       C  0.06273614  0.32031242  0.45031323    -0.41500
C2365       C  0.07382031  0.29339902  0.44706487     0.31700
C2366       C  0.05726987  0.26889821  0.44824450     0.13400
F2367       F  0.99192712  0.29936324  0.46175991    -0.13900
F2368       F  0.10066048  0.29084749  0.44238376    -0.14400
F2369       F  0.02336075  0.34722575  0.45861623    -0.16700
F2370       F  0.06834593  0.24375768  0.44423421    -0.15300
F2371       F  0.97768359  0.27032666  0.43823548    -0.15300
F2372       F  0.00967620  0.16975179  0.46134655    -0.16700
C2373       C  0.14886484  0.33091865  0.36404927     0.13400
C2374       C  0.13042027  0.33976108  0.35402798     0.00300
C2375       C  0.11624052  0.36572964  0.35496308     0.15300
C2376       C  0.11928142  0.38214153  0.36630520     0.24700
C2377       C  0.13653840  0.37241978  0.37662281    -0.41600
C2378       C  0.15196965  0.34727597  0.37529806     0.31800
C2379       C  0.12572003  0.32068538  0.34298378     0.00400
F2380       F  0.09874028  0.37445461  0.34517827    -0.13900
F2381       F  0.16935700  0.33827703  0.38508609    -0.14400
C2382       C  0.10761387  0.29753524  0.34469590     0.15300
C2383       C  0.11172461  0.27305098  0.33725557     0.24700
C2384       C  0.13425799  0.27175359  0.32824969    -0.41500
C2385       C  0.14897132  0.29669415  0.32507136     0.31700
C2386       C  0.14492377  0.32102698  0.33255458     0.13400
F2387       F  0.08848102  0.29743850  0.35465690    -0.13900
F2388       F  0.16921437  0.29671104  0.31559726    -0.14400
F2389       F  0.09604038  0.24981023  0.34000046    -0.16700
F2390       F  0.16215913  0.34361552  0.33071465    -0.15300
F2391       F  0.16299139  0.30588465  0.36310608    -0.15300
F2392       F  0.10411852  0.40647891  0.36758036    -0.16700
C2393       C  0.93754483  0.38415792  0.38505579     0.13400
C2394       C  0.94230038  0.35636491  0.38949110     0.00300
C2395       C  0.92806103  0.33372108  0.38353700     0.15300
C2396       C  0.91061741  0.33868379  0.37269054     0.24700
C2397       C  0.90721717  0.36628801  0.36784974    -0.41600
C2398       C  0.91994267  0.38909633  0.37431905     0.44600
C2399       C  0.96606997  0.35145316  0.39851041     0.00400
F2400       F  0.93229208  0.30683631  0.38778117    -0.13900
F2401       F  0.91739580  0.41575798  0.36951406    -0.14400
C2402       C  0.96579327  0.36443712  0.41090409     0.15300
C2403       C  0.99131236  0.37180808  0.41689505     0.24700
C2404       C  0.01717622  0.36569192  0.41059638    -0.41500
C2405       C  0.01732972  0.34835631  0.39936388     0.31700
C2406       C  0.99177916  0.34149632  0.39324784     0.13400
F2407       F  0.94092568  0.37300660  0.41635810    -0.13900
F2408       F  0.04207241  0.34127567  0.39336004    -0.14400
F2409       F  0.99073570  0.38701016  0.42824245    -0.16700
F2410       F  0.99239104  0.32873340  0.38127386    -0.15300
F2411       F  0.95207132  0.40619604  0.39035846    -0.15300
F2412       F  0.89797555  0.31652439  0.36654426    -0.16700
C2413       C  0.21227558  0.56147642  0.39195303     0.13400
C2414       C  0.19583939  0.57015844  0.38103698     0.00300
C2415       C  0.16629261  0.56603488  0.38172910     0.15300
C2416       C  0.15395865  0.55162903  0.39242083     0.24700
C2417       C  0.17058147  0.54145028  0.40296101    -0.41600
C2418       C  0.19984421  0.54727365  0.40270940     0.31800
C2419       C  0.20969274  0.58120188  0.36860697     0.00400
F2420       F  0.14951163  0.57393251  0.37153509    -0.13900
F2421       F  0.21687050  0.53686268  0.41231868    -0.14400
C2422       C  0.23054596  0.56498757  0.36207285     0.15300
C2423       C  0.24472257  0.57546914  0.35092226     0.24700
C2424       C  0.23860758  0.60252573  0.34577382    -0.41500
C2425       C  0.21703309  0.61842242  0.35200914     0.31700
C2426       C  0.20257508  0.60780013  0.36316811     0.13400
F2427       F  0.23784021  0.53905776  0.36670923    -0.13900
F2428       F  0.21147687  0.64519086  0.34794660    -0.14400
F2429       F  0.26618862  0.55988928  0.34568164    -0.16700
F2430       F  0.18288777  0.62437582  0.36917755    -0.15300
F2431       F  0.24071730  0.56573536  0.39197757    -0.15300
F2432       F  0.12591603  0.54532846  0.39191029    -0.16700
C2433       C  0.31853851  0.47419849  0.88735374     0.13400
C2434       C  0.33730189  0.46150317  0.87824021     0.00300
C2435       C  0.36649017  0.46170592  0.88147334     0.15300
C2436       C  0.37655175  0.47609922  0.89284232     0.24700
C2437       C  0.35780795  0.49021640  0.90153448    -0.41600
C2438       C  0.32857704  0.48831748  0.89870932     0.31800
C2439       C  0.32610409  0.44971659  0.86523727     0.00400
F2440       F  0.38558274  0.44974788  0.87314879    -0.13900
F2441       F  0.30964360  0.50210916  0.90648616    -0.14400
C2442       C  0.30889629  0.46662101  0.85699363     0.15300
C2443       C  0.29493039  0.45511627  0.84590395     0.24700
C2444       C  0.29805317  0.42638760  0.84237264    -0.41500
C2445       C  0.31642942  0.40975774  0.85019158     0.31700
C2446       C  0.33044194  0.42125587  0.86135230     0.13400
F2447       F  0.30451717  0.49429282  0.86001752    -0.13900
F2448       F  0.31897873  0.38164148  0.84765498    -0.14400
F2449       F  0.27614962  0.47158455  0.83927659    -0.16700
F2450       F  0.34648348  0.40387327  0.86893183    -0.15300
F2451       F  0.29020450  0.47382569  0.88501479    -0.15300
F2452       F  0.40494075  0.47820395  0.89478902    -0.16700
C2453       C  0.52114148  0.80779316  0.96027214     0.13400
C2454       C  0.53121845  0.78025107  0.95734230     0.00300
C2455       C  0.56005722  0.77712338  0.95407718     0.15300
C2456       C  0.57782434  0.80082466  0.95299785     0.24700
C2457       C  0.56743389  0.82853755  0.95526303    -0.41600
C2458       C  0.53901572  0.83159636  0.95925815     0.31800
C2459       C  0.51134481  0.75538219  0.95613450     0.00400
F2460       F  0.57071748  0.75118650  0.95104027    -0.13900
F2461       F  0.52791419  0.85780814  0.96123845    -0.14400
C2462       C  0.48824104  0.75671460  0.94741463     0.15300
C2463       C  0.47127455  0.73288813  0.94494140     0.24700
C2464       C  0.47703759  0.70645956  0.95091135    -0.41500
C2465       C  0.49961696  0.70536113  0.96005610     0.31700
C2466       C  0.51647260  0.72948779  0.96263570     0.13400
F2467       F  0.48292948  0.78085632  0.94063880    -0.13900
F2468       F  0.50629806  0.68065488  0.96609055    -0.14400
F2469       F  0.44934962  0.73577258  0.93639913    -0.16700
F2470       F  0.53818766  0.72738170  0.97134719    -0.15300
F2471       F  0.49363188  0.81180874  0.96371982    -0.15300
F2472       F  0.60512404  0.79665125  0.94919448    -0.16700
C2473       C  0.98043754  0.26494844  0.78238032     0.13400
C2474       C  0.00712849  0.25597223  0.78716503     0.00300
C2475       C  0.00871831  0.22938594  0.79330516     0.15300
C2476       C  0.98436743  0.21274242  0.79502391     0.24700
C2477       C  0.95735855  0.22214565  0.79077348    -0.41600
C2478       C  0.95588215  0.24826452  0.78414363     0.31800
C2479       C  0.03279299  0.27499938  0.78688833     0.00400
F2480       F  0.03373148  0.22005750  0.79832680    -0.13900
F2481       F  0.93047157  0.25843907  0.78000197    -0.14400
C2482       C  0.03213319  0.30142453  0.79330420     0.15300
C2483       C  0.05695658  0.31751108  0.79487578     0.24700
C2484       C  0.08343187  0.30766238  0.79021106    -0.41500
C2485       C  0.08375148  0.28228270  0.78285445     0.31700
C2486       C  0.05875372  0.26610634  0.78126741     0.13400
F2487       F  0.00766759  0.31102157  0.79877937    -0.13900
F2488       F  0.10848831  0.27226873  0.77783232    -0.14400
F2489       F  0.05520164  0.34265426  0.80132407    -0.16700
F2490       F  0.06002022  0.24136500  0.77446804    -0.15300
F2491       F  0.97803588  0.29022487  0.77619247    -0.15300
F2492       F  0.98723468  0.18744425  0.80117758    -0.16700
C2493       C  0.67878980  0.06604716  0.88191941     0.13400
C2494       C  0.70779330  0.06519142  0.87839748     0.00300
C2495       C  0.72640856  0.05088986  0.88700237     0.15300
C2496       C  0.71629495  0.03659656  0.89823142     0.24700
C2497       C  0.68721466  0.03655026  0.90156694    -0.41600
C2498       C  0.66867334  0.05185232  0.89327730     0.31800
C2499       C  0.71869227  0.07732335  0.86548117     0.00400
F2500       F  0.75456321  0.04986852  0.88426939    -0.13900
F2501       F  0.64034444  0.05108478  0.89555251    -0.14400
C2502       C  0.71692641  0.10649148  0.86252073     0.15300
C2503       C  0.73013632  0.11780240  0.85115473     0.24700
C2504       C  0.74529849  0.10034788  0.84227538    -0.41500
C2505       C  0.74596614  0.07106894  0.84500334     0.31700
C2506       C  0.73283498  0.05978063  0.85630724     0.13400
F2507       F  0.70437555  0.12447560  0.87118236    -0.13900
F2508       F  0.76149711  0.05351264  0.83722414    -0.14400
F2509       F  0.73031656  0.14627818  0.84947098    -0.16700
F2510       F  0.73507622  0.03158007  0.85859576    -0.15300
F2511       F  0.65984574  0.07891392  0.87384905    -0.15300
F2512       F  0.73486215  0.02096518  0.90540323    -0.16700
C2513       C  0.93094400  0.28775504  0.85371832     0.13400
C2514       C  0.92498130  0.31384127  0.84768575     0.00300
C2515       C  0.91389187  0.31439283  0.83490675     0.15300
C2516       C  0.90599342  0.28918440  0.82878674     0.24700
C2517       C  0.90982582  0.26329955  0.83530500    -0.41600
C2518       C  0.92369015  0.26254836  0.84746622     0.31800
C2519       C  0.92453641  0.33948399  0.85585435     0.00400
F2520       F  0.90878472  0.33942096  0.82882595    -0.13900
F2521       F  0.92730334  0.23767564  0.85391278    -0.14400
C2522       C  0.94913646  0.34829907  0.86241477     0.15300
C2523       C  0.94697532  0.36659265  0.87315288     0.24700
C2524       C  0.92018504  0.37618086  0.87731113    -0.41500
C2525       C  0.89602727  0.36980764  0.86988497     0.31700
C2526       C  0.89815952  0.35145060  0.85920781     0.13400
F2527       F  0.97486408  0.33765900  0.85895937    -0.13900
F2528       F  0.87002724  0.37902067  0.87376572    -0.14400
F2529       F  0.97078561  0.37398352  0.87983290    -0.16700
F2530       F  0.87406431  0.34309077  0.85302240    -0.15300
F2531       F  0.94089741  0.28677667  0.86623339    -0.15300
F2532       F  0.89316343  0.29008841  0.81684464    -0.16700
C2533       C  0.06806445  0.39333916  0.89256788     0.13400
C2534       C  0.07946452  0.36783615  0.89728652     0.00300
C2535       C  0.06414082  0.35168704  0.90634314     0.15300
C2536       C  0.03757465  0.36107738  0.91065516     0.24700
C2537       C  0.02649467  0.38698523  0.90609559    -0.41600
C2538       C  0.04191441  0.40287417  0.89694992     0.31800
C2539       C  0.10488467  0.35670889  0.89078160     0.00400
F2540       F  0.07480253  0.32684317  0.91086960    -0.13900
F2541       F  0.03123875  0.42724247  0.89187147    -0.14400
C2542       C  0.12936182  0.37346181  0.89044533     0.15300
C2543       C  0.14703670  0.37246666  0.87947114     0.24700
C2544       C  0.14049461  0.35418154  0.86892515    -0.41500
C2545       C  0.11923330  0.33365092  0.87063833     0.31700
C2546       C  0.10127717  0.33515722  0.88146097     0.13400
F2547       F  0.13367197  0.39362263  0.89977538    -0.13900
F2548       F  0.11414525  0.31371397  0.86129594    -0.14400
F2549       F  0.16839064  0.39154982  0.87859421    -0.16700
F2550       F  0.07796631  0.31839187  0.88177961    -0.15300
F2551       F  0.08170892  0.40838883  0.88316272    -0.15300
F2552       F  0.02294044  0.34509045  0.91936821    -0.16700
C2553       C  0.60608513  0.63782254  0.88047645     0.13400
C2554       C  0.59368470  0.66393178  0.88394782     0.00300
C2555       C  0.60268925  0.68880160  0.87777693     0.15300
C2556       C  0.62148483  0.68722835  0.86725911     0.24700
C2557       C  0.63161224  0.66082600  0.86295838    -0.41600
C2558       C  0.62514826  0.63631019  0.87004433     0.31800
C2559       C  0.56809737  0.66423073  0.89216201     0.00400
F2560       F  0.59189342  0.71431677  0.88142103    -0.13900
F2561       F  0.63512201  0.61064430  0.86610256    -0.14400
C2562       C  0.56860762  0.65220105  0.90472070     0.15300
C2563       C  0.54324931  0.64623252  0.91111995     0.24700
C2564       C  0.51719570  0.65250913  0.90506306    -0.41500
C2565       C  0.51670742  0.66690435  0.89305662     0.31700
C2566       C  0.54206293  0.67243715  0.88654464     0.13400
F2567       F  0.59357000  0.64454371  0.91035975    -0.13900
F2568       F  0.49171949  0.67293955  0.88702265    -0.14400
F2569       F  0.54402929  0.63294113  0.92292063    -0.16700
F2570       F  0.54103341  0.68319337  0.87419731    -0.15300
F2571       F  0.59773449  0.61348213  0.88634976    -0.15300
F2572       F  0.62889730  0.71128401  0.86088850    -0.16700
C2573       C  0.61289211  0.79431513  0.84743230     0.13400
C2574       C  0.63223082  0.81683024  0.84751979     0.00300
C2575       C  0.65215725  0.81918033  0.83740956     0.15300
C2576       C  0.65607657  0.79671510  0.82871987     0.24700
C2577       C  0.63996363  0.77180187  0.83011132    -0.41600
C2578       C  0.61641099  0.77201554  0.83856547     0.31800
C2579       C  0.63643050  0.83327298  0.85959931     0.00400
F2580       F  0.67035029  0.84137691  0.83705461    -0.13900
F2581       F  0.59897684  0.74931053  0.83941962    -0.14400
C2582       C  0.64500699  0.81898753  0.87102048     0.15300
C2583       C  0.65062830  0.83400714  0.88248074     0.24700
C2584       C  0.64793643  0.86359267  0.88267204    -0.41500
C2585       C  0.63986928  0.87797002  0.87115772     0.31700
C2586       C  0.63439344  0.86285435  0.85963613     0.13400
F2587       F  0.64844445  0.79042693  0.87098748    -0.13900
F2588       F  0.63579741  0.90642997  0.87123583    -0.14400
F2589       F  0.65862484  0.81961860  0.89341124    -0.16700
F2590       F  0.62662286  0.87696165  0.84860492    -0.15300
F2591       F  0.59283623  0.79234266  0.85694249    -0.15300
F2592       F  0.67762518  0.79817528  0.81990632    -0.16700
C2593       C  0.86413628  0.56049560  0.87795440     0.13400
C2594       C  0.83472275  0.56286961  0.87536159     0.00300
C2595       C  0.81621032  0.55336386  0.88535380     0.15300
C2596       C  0.82650990  0.54022286  0.89693767     0.24700
C2597       C  0.85582187  0.53658609  0.89924740    -0.41600
C2598       C  0.87441346  0.54738080  0.88959803     0.31800
C2599       C  0.82294001  0.57351753  0.86217847     0.00400
F2600       F  0.78776648  0.55617805  0.88376115    -0.13900
F2601       F  0.90275003  0.54318268  0.89095220    -0.14400
C2602       C  0.80316856  0.55712634  0.85503139     0.15300
C2603       C  0.78913172  0.56787430  0.84379625     0.24700
C2604       C  0.79418728  0.59549658  0.83908283    -0.41500
C2605       C  0.81543167  0.61124539  0.84561779     0.31700
C2606       C  0.82984591  0.60031913  0.85685044     0.13400
F2607       F  0.79673212  0.53063559  0.85915271    -0.13900
F2608       F  0.82075887  0.63814685  0.84174872    -0.14400
F2609       F  0.76899218  0.55170489  0.83793361    -0.16700
F2610       F  0.84925535  0.61684696  0.86299947    -0.15300
F2611       F  0.88312693  0.56915843  0.86882658    -0.15300
F2612       F  0.80757752  0.52949453  0.90560819    -0.16700
C2613       C  0.02933222  0.23113078  0.96238955     0.13400
C2614       C  0.03722260  0.25709250  0.95667049     0.00300
C2615       C  0.06316744  0.25824648  0.94989247     0.15300
C2616       C  0.08021481  0.23395215  0.94844650     0.24700
C2617       C  0.07176126  0.20753665  0.95359445    -0.41600
C2618       C  0.04640232  0.20668095  0.96091779     0.31800
C2619       C  0.01748357  0.28220744  0.95672315     0.00400
F2620       F  0.07128023  0.28258102  0.94394602    -0.13900
F2621       F  0.03715491  0.18183619  0.96595689    -0.14400
C2622       C  0.02589815  0.30881744  0.96172160     0.15300
C2623       C  0.00826294  0.33287954  0.96040601     0.24700
C2624       C  0.98203954  0.33098167  0.95383652    -0.41500
C2625       C  0.97312902  0.30401985  0.94945245     0.31700
C2626       C  0.99052723  0.28007240  0.95089292     0.13400
F2627       F  0.05153444  0.31165371  0.96762988    -0.13900
F2628       F  0.94775827  0.30093843  0.94329476    -0.14400
F2629       F  0.01766088  0.35831803  0.96480779    -0.16700
F2630       F  0.98159687  0.25498335  0.94586570    -0.15300
F2631       F  0.00457522  0.22927479  0.96911328    -0.15300
F2632       F  0.10480659  0.23613074  0.94160442    -0.16700
C2633       C  0.96640629  0.14025937  0.90832665     0.13400
C2634       C  0.96753093  0.15922355  0.89782534     0.00300
C2635       C  0.99128366  0.17667599  0.89625207     0.15300
C2636       C  0.01567719  0.17152660  0.90357373     0.24700
C2637       C  0.01620465  0.14895756  0.91252143    -0.41600
C2638       C  0.99068551  0.13527092  0.91575130     0.31800
C2639       C  0.94902082  0.15447233  0.88651803     0.00400
F2640       F  0.99215971  0.19579320  0.88632845    -0.13900
F2641       F  0.98995866  0.11513001  0.92522176    -0.14400
C2642       C  0.91977624  0.15969783  0.88708437     0.15300
C2643       C  0.90313285  0.15532043  0.87590476     0.24700
C2644       C  0.91574015  0.14518969  0.86427914    -0.41500
C2645       C  0.94470880  0.13870544  0.86399538     0.31700
C2646       C  0.96121358  0.14321253  0.87504342     0.13400
F2647       F  0.90766801  0.16978953  0.89825889    -0.13900
F2648       F  0.95711868  0.12853569  0.85289219    -0.14400
F2649       F  0.87526689  0.16263670  0.87616173    -0.16700
F2650       F  0.98926763  0.13665238  0.87454866    -0.15300
F2651       F  0.94322139  0.12382802  0.91020338    -0.15300
F2652       F  0.03950796  0.18622753  0.90071974    -0.16700
C2653       C  0.15674830  0.20515690  0.84267745     0.13400
C2654       C  0.12754411  0.19942564  0.84257351     0.00300
C2655       C  0.10923092  0.21711480  0.83540630     0.15300
C2656       C  0.11961993  0.24182041  0.82961090     0.24700
C2657       C  0.14858464  0.24871844  0.83070463    -0.41600
C2658       C  0.16724815  0.22914394  0.83656696     0.31800
C2659       C  0.11660713  0.17858746  0.85206653     0.00400
F2660       F  0.08113242  0.21122514  0.83462693    -0.13900
F2661       F  0.19551568  0.23423691  0.83744372    -0.14400
C2662       C  0.10013037  0.18828927  0.86264551     0.15300
C2663       C  0.09928123  0.17294593  0.87431579     0.24700
C2664       C  0.11554722  0.14801162  0.87572499    -0.41500
C2665       C  0.12837388  0.13626199  0.86440729     0.31700
C2666       C  0.12864387  0.15141005  0.85263814     0.13400
F2667       F  0.08761530  0.21421085  0.86228384    -0.13900
F2668       F  0.14261343  0.11127198  0.86490153    -0.14400
F2669       F  0.08415482  0.18372829  0.88449690    -0.16700
F2670       F  0.14329654  0.14094742  0.84220654    -0.15300
F2671       F  0.17493721  0.18907168  0.84985491    -0.15300
F2672       F  0.10125079  0.25934529  0.82331551    -0.16700
C2673       C  0.44783985  0.88133406  0.88098603     0.13400
C2674       C  0.46215974  0.85556422  0.88313850     0.00300
C2675       C  0.45526444  0.83188192  0.87543190     0.15300
C2676       C  0.43579616  0.83446305  0.86513932     0.24700
C2677       C  0.42288759  0.86077819  0.86244101    -0.41600
C2678       C  0.42833247  0.88390887  0.87072720     0.31800
C2679       C  0.48673046  0.85494633  0.89216576     0.00400
F2680       F  0.46804158  0.80652992  0.87762619    -0.13900
F2681       F  0.41648319  0.90958123  0.86828096    -0.14400
C2682       C  0.48376245  0.86429370  0.90521492     0.15300
C2683       C  0.50770836  0.87135221  0.91258377     0.24700
C2684       C  0.53480491  0.86899241  0.90700358    -0.41500
C2685       C  0.53801075  0.85682079  0.89450816     0.31700
C2686       C  0.51406229  0.84988368  0.88709060     0.13400
F2687       F  0.45762333  0.86860977  0.91044228    -0.13900
F2688       F  0.56410355  0.85458098  0.88895046    -0.14400
F2689       F  0.50443277  0.88218508  0.92486746    -0.16700
F2690       F  0.51756759  0.84113135  0.87447271    -0.15300
F2691       F  0.45427371  0.90464055  0.88822269    -0.15300
F2692       F  0.42998571  0.81138460  0.85762298    -0.16700
C2693       C  0.50831066  0.79655415  0.78625650     0.13400
C2694       C  0.50526507  0.76899868  0.78116722     0.00300
C2695       C  0.47787840  0.76039315  0.77719186     0.15300
C2696       C  0.45410623  0.77845581  0.77878514     0.24700
C2697       C  0.45701040  0.80542127  0.78460171    -0.41600
C2698       C  0.48466463  0.81439772  0.78797645     0.31800
C2699       C  0.53025186  0.74887839  0.78123768     0.00400
F2700       F  0.47397275  0.73411405  0.77210001    -0.13900
F2701       F  0.48876902  0.84025256  0.79351885    -0.14400
C2702       C  0.52932153  0.72386674  0.78868925     0.15300
C2703       C  0.55386994  0.70739912  0.79067864     0.24700
C2704       C  0.58029583  0.71532467  0.78528734    -0.41500
C2705       C  0.58075395  0.73909952  0.77694864     0.31700
C2706       C  0.55612215  0.75577807  0.77505192     0.13400
F2707       F  0.50497003  0.71623751  0.79480628    -0.13900
F2708       F  0.60539818  0.74728698  0.77126919    -0.14400
F2709       F  0.55189984  0.68396489  0.79829626    -0.16700
F2710       F  0.55776102  0.77925768  0.76745817    -0.15300
F2711       F  0.53408409  0.80565257  0.79041872    -0.15300
F2712       F  0.42799493  0.76873792  0.77550145    -0.16700
C2713       C  0.39464125  0.70371525  0.83224782     0.13400
C2714       C  0.41692371  0.70324410  0.84131067     0.00300
C2715       C  0.43738468  0.72480430  0.84112667     0.15300
C2716       C  0.43236518  0.74933923  0.83387559     0.24700
C2717       C  0.40680881  0.75210219  0.82691179    -0.41600
C2718       C  0.38965747  0.72804682  0.82498631     0.31800
C2719       C  0.41249531  0.68747221  0.85348270     0.00400
F2720       F  0.45965995  0.72400128  0.84957485    -0.13900
F2721       F  0.36596423  0.72928764  0.81740635    -0.14400
C2722       C  0.41305482  0.65782958  0.85378668     0.15300
C2723       C  0.40670584  0.64369069  0.86546431     0.24700
C2724       C  0.39939752  0.65922678  0.87681773    -0.41500
C2725       C  0.39755048  0.68882741  0.87621375     0.31700
C2726       C  0.40405372  0.70280128  0.86466255     0.13400
F2727       F  0.42011967  0.64276865  0.84288067    -0.13900
F2728       F  0.38964637  0.70428609  0.88688549    -0.14400
F2729       F  0.40908524  0.61506869  0.86584764    -0.16700
F2730       F  0.40158898  0.73145003  0.86429380    -0.15300
F2731       F  0.37495105  0.68281487  0.83212033    -0.15300
F2732       F  0.45036121  0.77152806  0.83516522    -0.16700
C2733       C  0.22815134  0.97001171  0.89057097     0.13400
C2734       C  0.21124293  0.96123732  0.87981014     0.00300
C2735       C  0.18172353  0.96566007  0.88084123     0.15300
C2736       C  0.16984372  0.97980355  0.89183690     0.24700
C2737       C  0.18692035  0.99013604  0.90221638    -0.41600
C2738       C  0.21626810  0.98453968  0.90148061     0.31800
C2739       C  0.22474465  0.94987543  0.86722783     0.00400
F2740       F  0.16447713  0.95831918  0.87071614    -0.13900
F2741       F  0.23383753  0.99510372  0.91083910    -0.14400
C2742       C  0.21786340  0.92308822  0.86182571     0.15300
C2743       C  0.23258663  0.91206265  0.85072716     0.24700
C2744       C  0.25393733  0.92784756  0.84441139    -0.41500
C2745       C  0.25970154  0.95510317  0.84946548     0.31700
C2746       C  0.24549463  0.96585250  0.86062718     0.13400
F2747       F  0.19811341  0.90675467  0.86778030    -0.13900
F2748       F  0.28050576  0.97090077  0.84396528    -0.14400
F2749       F  0.22752350  0.88506780  0.84681026    -0.16700
F2750       F  0.25259480  0.99191248  0.86518829    -0.15300
F2751       F  0.25658404  0.96552729  0.89027564    -0.15300
F2752       F  0.14163061  0.98557910  0.89182370    -0.16700
C2753       C  0.05822409  0.54496207  0.99555816     0.13400
C2754       C  0.04438684  0.51878694  0.99652176     0.00300
C2755       C  0.05589868  0.49814241  0.00497202     0.15300
C2756       C  0.07937065  0.50435814  0.01301055     0.24700
C2757       C  0.09219459  0.53128577  0.01262177    -0.41600
C2758       C  0.08223392  0.55083059  0.00317756     0.31800
C2759       C  0.01772024  0.51349228  0.98891071     0.00400
F2760       F  0.04410653  0.47202875  0.00561077    -0.13900
F2761       F  0.09475550  0.57644696  0.00170661    -0.14400
C2762       C  0.01697711  0.51718048  0.97518951     0.15300
C2763       C  0.99185994  0.51271661  0.96805148     0.24700
C2764       C  0.96708137  0.50342605  0.97437072    -0.41500
C2765       C  0.96782710  0.49974275  0.98812801     0.31700
C2766       C  0.99266776  0.50523595  0.99532910     0.13400
F2767       F  0.04106055  0.52362568  0.96857270    -0.13900
F2768       F  0.94465945  0.49002021  0.99457832    -0.14400
F2769       F  0.99246895  0.51517102  0.95477752    -0.16700
F2770       F  0.99230687  0.50223403  0.00859320    -0.15300
F2771       F  0.04753775  0.56563603  0.98774121    -0.15300
F2772       F  0.08886605  0.48426033  0.02145278    -0.16700
C2773       C  0.27085926  0.55786434  0.98171237     0.13400
C2774       C  0.28027162  0.54544688  0.99347697     0.00300
C2775       C  0.30826389  0.53475381  0.99394150     0.15300
C2776       C  0.32663969  0.53737366  0.98304535     0.24700
C2777       C  0.31752355  0.55118383  0.97151553    -0.41600
C2778       C  0.28920085  0.56080758  0.97095868     0.31800
C2779       C  0.26137883  0.54548156  0.00538153     0.00400
F2780       F  0.31797345  0.52223102  0.00506100    -0.13900
F2781       F  0.27939307  0.57391997  0.96000661    -0.14400
C2782       C  0.23423866  0.53305014  0.00502570     0.15300
C2783       C  0.21564646  0.53541076  0.01580468     0.24700
C2784       C  0.22359300  0.55053770  0.02719808    -0.41500
C2785       C  0.25096740  0.56241548  0.02763764     0.31700
C2786       C  0.26954807  0.55993499  0.01689648     0.13400
F2787       F  0.22541192  0.51913598  0.99408027    -0.13900
F2788       F  0.25961942  0.57702730  0.03842147    -0.14400
F2789       F  0.18921167  0.52433225  0.01474884    -0.16700
F2790       F  0.29505405  0.57307377  0.01749604    -0.15300
F2791       F  0.24419991  0.56862533  0.98083636    -0.15300
F2792       F  0.35375362  0.52790232  0.98407714    -0.16700
C2793       C  0.25587361  0.29361158  0.23419633     0.13400
C2794       C  0.27531441  0.28124469  0.24304569     0.00300
C2795       C  0.30184609  0.29413786  0.24470161     0.15300
C2796       C  0.30902496  0.31835493  0.23761574     0.24700
C2797       C  0.29038014  0.32989036  0.22808557    -0.41600
C2798       C  0.26341906  0.31740161  0.22668240     0.31800
C2799       C  0.26818902  0.25503672  0.25057896     0.00400
F2800       F  0.32153179  0.28261512  0.25285207    -0.13900
F2801       F  0.24441806  0.32785697  0.21791953    -0.14400
C2802       C  0.25753182  0.23082298  0.24415845     0.15300
C2803       C  0.24958764  0.20685401  0.25137138     0.24700
C2804       C  0.25339513  0.20600461  0.26509179    -0.41500
C2805       C  0.26544992  0.22957833  0.27140578     0.31700
C2806       C  0.27218916  0.25398458  0.26429899     0.13400
F2807       F  0.25457266  0.23042155  0.23089170    -0.13900
F2808       F  0.26843893  0.22996790  0.28466796    -0.14400
F2809       F  0.23746261  0.18470211  0.24498560    -0.16700
F2810       F  0.28114137  0.27720124  0.27098846    -0.15300
F2811       F  0.22945822  0.28268091  0.23282857    -0.15300
F2812       F  0.33496013  0.32975172  0.23986880    -0.16700
C2813       C  0.30164070  0.51658070  0.23373593     0.13400
C2814       C  0.28869871  0.50539808  0.24501639     0.00300
C2815       C  0.27839880  0.47745288  0.24448926     0.15300
C2816       C  0.28256721  0.46051992  0.23320443     0.24700
C2817       C  0.29757923  0.47109416  0.22231473    -0.41600
C2818       C  0.30608430  0.49965490  0.22256739     0.31800
C2819       C  0.28808379  0.52235208  0.25748933     0.00400
F2820       F  0.26493379  0.46634424  0.25504790    -0.13900
F2821       F  0.31969552  0.51095797  0.21208719    -0.14400
C2822       C  0.27442936  0.54888167  0.25803908     0.15300
C2823       C  0.27748275  0.56665296  0.26907765     0.24700
C2824       C  0.29460281  0.55840280  0.27978769    -0.41500
C2825       C  0.30662886  0.53100695  0.27957031     0.31700
C2826       C  0.30350689  0.51328642  0.26855578     0.13400
F2827       F  0.25885943  0.55799754  0.24765307    -0.13900
F2828       F  0.32223710  0.52163642  0.28990573    -0.14400
F2829       F  0.26518176  0.59266694  0.26886724    -0.16700
F2830       F  0.31708044  0.48789918  0.26840111    -0.15300
F2831       F  0.31154312  0.54352050  0.23379159    -0.15300
F2832       F  0.27360070  0.43326233  0.23328961    -0.16700
C2833       C  0.22174294  0.47376139  0.10546883     0.13400
C2834       C  0.20608481  0.46157671  0.11588671     0.00300
C2835       C  0.17636167  0.46035884  0.11436080     0.15300
C2836       C  0.16279969  0.47219127  0.10324274     0.24700
C2837       C  0.17831771  0.48577854  0.09321074    -0.41600
C2838       C  0.20808328  0.48584670  0.09441371     0.31800
C2839       C  0.22051742  0.45235390  0.12861930     0.00400
F2840       F  0.16006884  0.44988283  0.12417406    -0.13900
F2841       F  0.22389771  0.50002769  0.08547973    -0.14400
C2842       C  0.23924259  0.47079903  0.13521519     0.15300
C2843       C  0.25424030  0.46217128  0.14650271     0.24700
C2844       C  0.25110239  0.43480975  0.15183718    -0.41500
C2845       C  0.23113598  0.41678264  0.14577825     0.31700
C2846       C  0.21606442  0.42540514  0.13434599     0.13400
F2847       F  0.24350752  0.49735609  0.13060396    -0.13900
F2848       F  0.22766529  0.39007562  0.15034058    -0.14400
F2849       F  0.27322967  0.48033716  0.15191632    -0.16700
F2850       F  0.19840385  0.40665891  0.12843165    -0.15300
F2851       F  0.25043726  0.47513869  0.10622965    -0.15300
F2852       F  0.13402844  0.47251505  0.10281326    -0.16700
C2853       C  0.49267299  0.05322490  0.99993189     0.13400
C2854       C  0.50958431  0.02922920  0.00234241     0.00300
C2855       C  0.50175308  0.01137902  0.01284550     0.15300
C2856       C  0.47811918  0.01774806  0.02084635     0.24700
C2857       C  0.46123893  0.04187116  0.01842488    -0.41600
C2858       C  0.46880007  0.05920809  0.00764052     0.31800
C2859       C  0.53493306  0.02282753  0.99378240     0.00400
F2860       F  0.51681722  0.98746790  0.01532828    -0.13900
F2861       F  0.45363625  0.08280528  0.00463008    -0.14400
C2862       C  0.56150821  0.01572755  0.99928721     0.15300
C2863       C  0.58442856  0.00759877  0.99122836     0.24700
C2864       C  0.58184190  0.00765748  0.97745230    -0.41500
C2865       C  0.55596067  0.01650458  0.97192690     0.31700
C2866       C  0.53269264  0.02346886  0.97994258     0.13400
F2867       F  0.56526168  0.01630801  0.01250681    -0.13900
F2868       F  0.55237044  0.01596932  0.95869125    -0.14400
F2869       F  0.60898201  0.99885452  0.99689908    -0.16700
F2870       F  0.50741869  0.02906856  0.97409099    -0.15300
F2871       F  0.49973194  0.07171795  0.99030717    -0.15300
F2872       F  0.47211664  0.00043749  0.03107081    -0.16700
C2873       C  0.23902749  0.03513640  0.99079727     0.13400
C2874       C  0.26708173  0.04502428  0.99057741     0.00300
C2875       C  0.27788983  0.05617562  0.97882121     0.15300
C2876       C  0.26038052  0.05898195  0.96772914     0.24700
C2877       C  0.23175978  0.05062695  0.96817810    -0.41600
C2878       C  0.22147995  0.03799924  0.97974915     0.31800
C2879       C  0.28341093  0.04744788  0.00305331     0.00400
F2880       F  0.30485734  0.06604001  0.97833804    -0.13900
F2881       F  0.19376630  0.03065493  0.98078096    -0.14400
C2882       C  0.30800901  0.03135760  0.00536754     0.15300
C2883       C  0.32343374  0.03476033  0.01711394     0.24700
C2884       C  0.31494215  0.05498287  0.02665328    -0.41500
C2885       C  0.29003632  0.07082856  0.02421541     0.31700
C2886       C  0.27447776  0.06692920  0.01264171     0.13400
F2887       F  0.31737256  0.01271213  0.99614790    -0.13900
F2888       F  0.28101229  0.09089395  0.03284466    -0.14400
F2889       F  0.34744755  0.01924286  0.01878102    -0.16700
F2890       F  0.25114416  0.08320578  0.01051333    -0.15300
F2891       F  0.22820351  0.02399547  0.00198877    -0.15300
F2892       F  0.27108429  0.07088269  0.95668508    -0.16700
C2893       C  0.41827164  0.22447620  0.16015816     0.13400
C2894       C  0.43112615  0.22355028  0.14775703     0.00300
C2895       C  0.44051237  0.24885277  0.14194819     0.15300
C2896       C  0.43417380  0.27492471  0.14781234     0.24700
C2897       C  0.41774460  0.27576256  0.15928784    -0.41600
C2898       C  0.41129165  0.25045343  0.16581608     0.31800
C2899       C  0.42907477  0.19767440  0.13968985     0.00400
F2900       F  0.45297648  0.24849145  0.12992622    -0.13900
F2901       F  0.39646781  0.25093838  0.17724544    -0.14400
C2902       C  0.40202793  0.18707091  0.13651762     0.15300
C2903       C  0.39889176  0.16724740  0.12645427     0.24700
C2904       C  0.42263095  0.15836227  0.11928543    -0.41500
C2905       C  0.44986681  0.16693437  0.12319495     0.31700
C2906       C  0.45310275  0.18636769  0.13344619     0.13400
F2907       F  0.37837613  0.19799461  0.14224088    -0.13900
F2908       F  0.47313716  0.15752671  0.11663488    -0.14400
F2909       F  0.37245054  0.15904366  0.12281430    -0.16700
F2910       F  0.47944427  0.19546543  0.13674161    -0.15300
F2911       F  0.41021017  0.20023491  0.16619199    -0.15300
F2912       F  0.44139747  0.29918973  0.14156823    -0.16700
C2913       C  0.29411473  0.72382098  0.24691036     0.13400
C2914       C  0.27155925  0.74251397  0.24957232     0.00300
C2915       C  0.25343312  0.73623243  0.26018533     0.15300
C2916       C  0.25883169  0.71285142  0.26839337     0.24700
C2917       C  0.28243833  0.69500944  0.26613004    -0.41600
C2918       C  0.29920739  0.70028768  0.25489400     0.31800
C2919       C  0.26709622  0.76827404  0.24120966     0.00400
F2920       F  0.23056423  0.75291721  0.26270595    -0.13900
F2921       F  0.32159649  0.68334526  0.25185458    -0.14400
C2922       C  0.26627833  0.76587821  0.22740961     0.15300
C2923       C  0.26187107  0.78974780  0.21952185     0.24700
C2924       C  0.25682916  0.81646059  0.22517281    -0.41500
C2925       C  0.25801760  0.81911885  0.23893111     0.31700
C2926       C  0.26378099  0.79542848  0.24685642     0.13400
F2927       F  0.26805555  0.74009759  0.22152994    -0.13900
F2928       F  0.25285225  0.84456501  0.24470079    -0.14400
F2929       F  0.26010266  0.78628268  0.20632476    -0.16700
F2930       F  0.26581172  0.79901545  0.26006075    -0.15300
F2931       F  0.31231443  0.72904861  0.23689115    -0.15300
F2932       F  0.24165003  0.70857525  0.27888316    -0.16700
C2933       C  0.21718496  0.00837501  0.22911280     0.13400
C2934       C  0.23856493  0.00266234  0.23831009     0.00300
C2935       C  0.25797470  0.98073293  0.23574818     0.15300
C2936       C  0.25515509  0.96381822  0.22442661     0.24700
C2937       C  0.23257020  0.96839425  0.21551483    -0.41600
C2938       C  0.21430460  0.99170324  0.21781755     0.31800
C2939       C  0.23858897  0.01821503  0.25101049     0.00400
F2940       F  0.27866639  0.97466232  0.24458634    -0.13900
F2941       F  0.19276446  0.99786370  0.20942787    -0.14400
C2942       C  0.21748479  0.01240999  0.26028539     0.15300
C2943       C  0.21425047  0.02946290  0.27143300     0.24700
C2944       C  0.23179584  0.05328699  0.27350365    -0.41500
C2945       C  0.25435595  0.05780267  0.26461392     0.31700
C2946       C  0.25751451  0.04051798  0.25341038     0.13400
F2947       F  0.19901610  0.99086689  0.25821201    -0.13900
F2948       F  0.27239793  0.07983162  0.26629122    -0.14400
F2949       F  0.19300424  0.02315603  0.27991326    -0.16700
F2950       F  0.27792846  0.04663186  0.24448126    -0.15300
F2951       F  0.19823836  0.02955082  0.23137338    -0.15300
F2952       F  0.27359395  0.94201113  0.22265187    -0.16700
C2953       C  0.10023804  0.71815641  0.15651850     0.13400
C2954       C  0.11790441  0.69974155  0.14940517     0.00300
C2955       C  0.14720047  0.70462774  0.14895248     0.15300
C2956       C  0.15863688  0.72822021  0.15501707     0.24700
C2957       C  0.14084736  0.74800991  0.16129988    -0.41600
C2958       C  0.11162223  0.74228009  0.16244372     0.31800
C2959       C  0.10613886  0.67853205  0.14042402     0.00400
F2960       F  0.16453362  0.68799891  0.14154203    -0.13900
F2961       F  0.09399260  0.76031318  0.16893183    -0.14400
C2962       C  0.09001022  0.68783684  0.12970049     0.15300
C2963       C  0.08787025  0.67103765  0.11851748     0.24700
C2964       C  0.10262045  0.64499569  0.11779681    -0.41500
C2965       C  0.11541213  0.63417340  0.12925504     0.31700
C2966       C  0.11709942  0.65091521  0.14050716     0.13400
F2967       F  0.07947429  0.71462588  0.12934571    -0.13900
F2968       F  0.12842220  0.60849620  0.12931879    -0.14400
F2969       F  0.07344968  0.68160897  0.10805634    -0.16700
F2970       F  0.13244499  0.64155569  0.15092810    -0.15300
F2971       F  0.07186794  0.71353026  0.15709341    -0.15300
F2972       F  0.18692626  0.73271367  0.15373707    -0.16700
C2973       C  0.36076135  0.96231166  0.11209809     0.13400
C2974       C  0.33322238  0.96756965  0.11711725     0.00300
C2975       C  0.31619345  0.98721198  0.11021387     0.15300
C2976       C  0.32670034  0.00195678  0.09920620     0.24700
C2977       C  0.35441162  0.99731658  0.09441220    -0.41600
C2978       C  0.37113139  0.97692705  0.10094230     0.31800
C2979       C  0.32209316  0.95285212  0.12940935     0.00400
F2980       F  0.28931070  0.99267629  0.11426932    -0.13900
F2981       F  0.39840968  0.97273852  0.09715187    -0.14400
C2982       C  0.30930121  0.96827893  0.13981089     0.15300
C2983       C  0.29577172  0.95438765  0.15039974     0.24700
C2984       C  0.29460877  0.92461601  0.15104642    -0.41500
C2985       C  0.30892779  0.90925486  0.14111813     0.31700
C2986       C  0.32266145  0.92307271  0.13058426     0.13400
F2987       F  0.30917896  0.99699638  0.13957837    -0.13900
F2988       F  0.30789687  0.88055798  0.14110113    -0.14400
F2989       F  0.28203771  0.97013658  0.15959729    -0.16700
F2990       F  0.33476956  0.90706127  0.12100555    -0.15300
F2991       F  0.37846823  0.94435651  0.11850756    -0.15300
F2992       F  0.31026000  0.02234887  0.09367536    -0.16700
C2993       C  0.73524333  0.23014007  0.24886377     0.13400
C2994       C  0.75984351  0.24630070  0.24707569     0.00300
C2995       C  0.77952438  0.23738146  0.23745792     0.15300
C2996       C  0.77401153  0.21366461  0.22942455     0.24700
C2997       C  0.74875371  0.19805995  0.23088890    -0.41600
C2998       C  0.72999195  0.20619722  0.24110279     0.31800
C2999       C  0.76471470  0.27232282  0.25525780     0.00400
F3000       F  0.80408295  0.25178569  0.23574429    -0.13900
F3001       F  0.70567538  0.19171418  0.24334577    -0.14400
C3002       C  0.76323469  0.27114740  0.26908424     0.15300
C3003       C  0.76876052  0.29521648  0.27678934     0.24700
C3004       C  0.77679264  0.32082331  0.27091241    -0.41500
C3005       C  0.77716767  0.32239315  0.25710164     0.31700
C3006       C  0.77070750  0.29856333  0.24935813     0.13400
F3007       F  0.75809296  0.24622206  0.27520662    -0.13900
F3008       F  0.78481533  0.34682222  0.25111568    -0.14400
F3009       F  0.76875513  0.29277536  0.29006719    -0.16700
F3010       F  0.77068552  0.30105008  0.23607557    -0.15300
F3011       F  0.71538920  0.23831845  0.25776709    -0.15300
F3012       F  0.79300148  0.20668870  0.21992643    -0.16700
C3013       C  0.72732237  0.01235106  0.26394407     0.13400
C3014       C  0.74214900  0.00317561  0.25268989     0.00300
C3015       C  0.75317556  0.97544524  0.25246708     0.15300
C3016       C  0.74784836  0.95673522  0.26285131     0.24700
C3017       C  0.73174511  0.96549197  0.27379518    -0.41600
C3018       C  0.72201315  0.99366639  0.27433375     0.31800
C3019       C  0.74329277  0.02144808  0.24073992     0.00400
F3020       F  0.76858413  0.96626031  0.24201982    -0.13900
F3021       F  0.70675625  0.00295227  0.28481205    -0.14400
C3022       C  0.75430385  0.04909680  0.24129759     0.15300
C3023       C  0.75160892  0.06744507  0.23051782     0.24700
C3024       C  0.73777371  0.05853056  0.21896980    -0.41500
C3025       C  0.72818919  0.03036038  0.21817741     0.31700
C3026       C  0.73086238  0.01208420  0.22892661     0.13400
F3027       F  0.76678724  0.05868209  0.25246877    -0.13900
F3028       F  0.71519453  0.02079073  0.20711694    -0.14400
F3029       F  0.76056322  0.09458913  0.23175609    -0.16700
F3030       F  0.71953780  0.98576098  0.22807027    -0.15300
F3031       F  0.71669076  0.03905328  0.26460820    -0.15300
F3032       F  0.75674969  0.92946011  0.26176668    -0.16700
C3033       C  0.55469547  0.25378058  0.21497506     0.13400
C3034       C  0.53099491  0.25175956  0.20651929     0.00300
C3035       C  0.53251517  0.23265094  0.19596191     0.15300
C3036       C  0.55706244  0.21668947  0.19358226     0.24700
C3037       C  0.58141995  0.21913554  0.20170394    -0.41600
C3038       C  0.57955182  0.23759998  0.21264257     0.31800
C3039       C  0.50566776  0.27113034  0.20762881     0.00400
F3040       F  0.51057156  0.23049819  0.18737187    -0.13900
F3041       F  0.60203398  0.24084865  0.22083395    -0.14400
C3042       C  0.50909699  0.30059967  0.20650830     0.15300
C3043       C  0.48552770  0.31851842  0.20473252     0.24700
C3044       C  0.45776990  0.30759307  0.20429109    -0.41500
C3045       C  0.45412078  0.27832693  0.20618015     0.31700
C3046       C  0.47776852  0.26030433  0.20779354     0.13400
F3047       F  0.53548693  0.31192331  0.20619406    -0.13900
F3048       F  0.42780951  0.26685904  0.20547511    -0.14400
F3049       F  0.48993740  0.34662451  0.20299919    -0.16700
F3050       F  0.47345152  0.23203750  0.20897460    -0.15300
F3051       F  0.55393741  0.27173549  0.22541130    -0.15300
F3052       F  0.55690438  0.19929614  0.18293756    -0.16700
C3053       C  0.55763941  0.17913375  0.09765683     0.13400
C3054       C  0.58183326  0.16384664  0.09363329     0.00300
C3055       C  0.58027019  0.14636667  0.08249333     0.15300
C3056       C  0.55409026  0.14116747  0.07662821     0.24700
C3057       C  0.52925223  0.15349739  0.08183934    -0.41600
C3058       C  0.53149271  0.17411587  0.09171981     0.31800
C3059       C  0.60575744  0.16105298  0.10286357     0.00400
F3060       F  0.60355452  0.13216277  0.07814692    -0.13900
F3061       F  0.50800546  0.18681941  0.09674459    -0.14400
C3062       C  0.61154944  0.13430367  0.10835645     0.15300
C3063       C  0.62734638  0.13220449  0.11987498     0.24700
C3064       C  0.63734642  0.15671521  0.12602251    -0.41500
C3065       C  0.63383753  0.18313900  0.11997785     0.31700
C3066       C  0.61838464  0.18525943  0.10832653     0.13400
F3067       F  0.59959024  0.11048664  0.10335228    -0.13900
F3068       F  0.64443966  0.20692321  0.12563960    -0.14400
F3069       F  0.63069681  0.10655756  0.12566019    -0.16700
F3070       F  0.61405075  0.21109041  0.10286456    -0.15300
F3071       F  0.55848318  0.19615675  0.10842520    -0.15300
F3072       F  0.55271470  0.12234905  0.06652749    -0.16700
C3073       C  0.99308707  0.98251499  0.99948262     0.13400
C3074       C  0.00705956  0.00861596  0.00086321     0.00300
C3075       C  0.99572426  0.02829296  0.01000458     0.15300
C3076       C  0.97190686  0.02154651  0.01781892     0.24700
C3077       C  0.95849014  0.99499704  0.01666749    -0.41600
C3078       C  0.96899181  0.97611555  0.00695095     0.31800
C3079       C  0.03303571  0.01510551  0.99267755     0.00400
F3080       F  0.00763707  0.05422746  0.01140257    -0.13900
F3081       F  0.95664312  0.95060205  0.00485652    -0.14400
C3082       C  0.03343111  0.00966958  0.97899452     0.15300
C3083       C  0.05724698  0.01631707  0.97129140     0.24700
C3084       C  0.08095321  0.02972252  0.97686512    -0.41500
C3085       C  0.08101133  0.03457011  0.99054235     0.31700
C3086       C  0.05771121  0.02676890  0.99837949     0.13400
F3087       F  0.01003350  0.99953706  0.97282914    -0.13900
F3088       F  0.10342560  0.04767514  0.99628533    -0.14400
F3089       F  0.05604570  0.01193926  0.95811555    -0.16700
F3090       F  0.05928846  0.03088288  0.01156368    -0.15300
F3091       F  0.00349291  0.96229882  0.99127132    -0.15300
F3092       F  0.96227064  0.04097695  0.02661155    -0.16700
C3093       C  0.77677664  0.98938837  0.97977684     0.13400
C3094       C  0.76601031  0.99896113  0.99190682     0.00300
C3095       C  0.73751233  0.00795373  0.99251941     0.15300
C3096       C  0.71956815  0.00515403  0.98157417     0.24700
C3097       C  0.72968717  0.99295218  0.96986051    -0.41600
C3098       C  0.75876217  0.98623660  0.96890541     0.31800
C3099       C  0.78321249  0.99568918  0.00415782     0.00400
F3100       F  0.72656783  0.01777052  0.00399846    -0.13900
F3101       F  0.76930380  0.97465034  0.95768638    -0.14400
C3102       C  0.81047037  0.00750863  0.00532710     0.15300
C3103       C  0.82777766  0.00111006  0.01617402     0.24700
C3104       C  0.81814840  0.98284750  0.02612024    -0.41500
C3105       C  0.79034249  0.97222140  0.02525236     0.31700
C3106       C  0.77319177  0.97841456  0.01438113     0.13400
F3107       F  0.82063095  0.02473408  0.99580290    -0.13900
F3108       F  0.77990684  0.95523509  0.03481412    -0.14400
F3109       F  0.85461936  0.01136880  0.01651515    -0.16700
F3110       F  0.74726762  0.96614806  0.01349976    -0.15300
F3111       F  0.80413239  0.98059443  0.97875108    -0.15300
F3112       F  0.69163364  0.01156540  0.98288815    -0.16700
C3113       C  0.06045547  0.84059624  0.08758151     0.13400
C3114       C  0.07521720  0.85558151  0.09732962     0.00300
C3115       C  0.06415941  0.88112128  0.10222663     0.15300
C3116       C  0.03941118  0.89234061  0.09709381     0.24700
C3117       C  0.02469218  0.87787900  0.08716960    -0.41600
C3118       C  0.03515260  0.85173344  0.08248740     0.31800
C3119       C  0.10097401  0.84458456  0.10359145     0.00400
F3120       F  0.07696394  0.89479481  0.11237946    -0.13900
F3121       F  0.02125824  0.83737725  0.07287463    -0.14400
C3122       C  0.12535485  0.86151697  0.10332369     0.15300
C3123       C  0.14326252  0.86247251  0.11422969     0.24700
C3124       C  0.13725049  0.84573319  0.12528555    -0.41500
C3125       C  0.11604560  0.82482467  0.12429662     0.31700
C3126       C  0.09785434  0.82441197  0.11350323     0.13400
F3127       F  0.12913803  0.88036203  0.09344646    -0.13900
F3128       F  0.11126678  0.80643425  0.13426838    -0.14400
F3129       F  0.16422751  0.88207055  0.11451304    -0.16700
F3130       F  0.07487524  0.80719098  0.11367362    -0.15300
F3131       F  0.07046282  0.81539123  0.08308828    -0.15300
F3132       F  0.02932433  0.91700764  0.10218348    -0.16700
C3133       C  0.87078124  0.05494741  0.11875822     0.13400
C3134       C  0.84342176  0.06690107  0.11833726     0.00300
C3135       C  0.82822178  0.06468883  0.10637570     0.15300
C3136       C  0.83952541  0.04975214  0.09542890     0.24700
C3137       C  0.86658655  0.03704927  0.09601834    -0.41600
C3138       C  0.88209225  0.04026990  0.10784257     0.31800
C3139       C  0.83033295  0.08035252  0.13049710     0.00400
F3140       F  0.80151285  0.07532156  0.10557829    -0.13900
F3141       F  0.90767826  0.02728884  0.10915529    -0.14400
C3142       C  0.82278121  0.10919968  0.13072328     0.15300
C3143       C  0.80870192  0.12123947  0.14164466     0.24700
C3144       C  0.80113610  0.10487881  0.15269603    -0.41500
C3145       C  0.80967839  0.07621390  0.15271205     0.31700
C3146       C  0.82441732  0.06425140  0.14185893     0.13400
F3147       F  0.82824041  0.12568013  0.12014041    -0.13900
F3148       F  0.80183111  0.05918008  0.16276455    -0.14400
F3149       F  0.80038592  0.14874264  0.14101060    -0.16700
F3150       F  0.83123230  0.03632482  0.14208887    -0.15300
F3151       F  0.88633451  0.05666974  0.12995760    -0.15300
F3152       F  0.82297980  0.04557265  0.08468811    -0.16700
C3153       C  0.02185578  0.80266647  0.03373548     0.13400
C3154       C  0.01015936  0.77575992  0.03619867     0.00300
C3155       C  0.98157813  0.77426378  0.04006228     0.15300
C3156       C  0.96565918  0.79905347  0.04221652     0.24700
C3157       C  0.97771132  0.82600723  0.04031366    -0.41600
C3158       C  0.00574944  0.82750406  0.03567230     0.31800
C3159       C  0.02869077  0.74990308  0.03676232     0.00400
F3160       F  0.96961941  0.74881646  0.04267393    -0.13900
F3161       F  0.01832196  0.85304136  0.03404654    -0.14400
C3162       C  0.05050878  0.74874780  0.04610795     0.15300
C3163       C  0.06654266  0.72407659  0.04784453     0.24700
C3164       C  0.06097274  0.69916760  0.04048806    -0.41500
C3165       C  0.03978175  0.70062609  0.03069923     0.31700
C3166       C  0.02382281  0.72576946  0.02886412     0.13400
F3167       F  0.05542775  0.77124525  0.05413080    -0.13900
F3168       F  0.03349625  0.67744239  0.02336817    -0.14400
F3169       F  0.08719353  0.72450202  0.05714653    -0.16700
F3170       F  0.00328578  0.72642973  0.01952201    -0.15300
F3171       F  0.04939041  0.80492540  0.03003594    -0.15300
F3172       F  0.93866803  0.79674262  0.04671010    -0.16700
C3173       C  0.52729684  0.51641774  0.01832840     0.13400
C3174       C  0.52741713  0.51398396  0.00448777     0.00300
C3175       C  0.55331168  0.50735998  0.99824333     0.15300
C3176       C  0.57780696  0.50180083  0.00563013     0.24700
C3177       C  0.57741754  0.50350504  0.01942916    -0.41600
C3178       C  0.55215670  0.51195416  0.02566155     0.31800
C3179       C  0.50100819  0.51923768  0.99656261     0.00400
F3180       F  0.55497921  0.50592908  0.98494598    -0.13900
F3181       F  0.55087104  0.51369291  0.03895403    -0.14400
C3182       C  0.48425297  0.54336584  0.99900442     0.15300
C3183       C  0.46132210  0.55002851  0.99087717     0.24700
C3184       C  0.45520459  0.53370796  0.97954280    -0.41500
C3185       C  0.47059863  0.50849529  0.97757163     0.31700
C3186       C  0.49296179  0.50111505  0.98611302     0.13400
F3187       F  0.49120782  0.56190395  0.00869853    -0.13900
F3188       F  0.46547892  0.49205179  0.96687681    -0.14400
F3189       F  0.44639988  0.57401296  0.99358074    -0.16700
F3190       F  0.50728354  0.47659149  0.98391038    -0.15300
F3191       F  0.50271924  0.52141386  0.02488308    -0.15300
F3192       F  0.60189141  0.49384605  0.99929325    -0.16700
C3193       C  0.77154691  0.47121983  0.97909606     0.13400
C3194       C  0.77961941  0.48923202  0.98943634     0.00300
C3195       C  0.80396713  0.50595778  0.98801222     0.15300
C3196       C  0.82112431  0.50326327  0.97680651     0.24700
C3197       C  0.81429350  0.48345441  0.96690448    -0.41600
C3198       C  0.78847464  0.46863870  0.96788032     0.31800
C3199       C  0.76328506  0.48935826  0.00189885     0.00400
F3200       F  0.81157126  0.52425205  0.99769153    -0.13900
F3201       F  0.78012122  0.45071997  0.95816484    -0.14400
C3202       C  0.77495535  0.47743735  0.01334008     0.15300
C3203       C  0.75826114  0.47409618  0.02462036     0.24700
C3204       C  0.72961768  0.48266418  0.02464896    -0.41500
C3205       C  0.71862233  0.49635209  0.01347696     0.31700
C3206       C  0.73523565  0.49938652  0.00216615     0.13400
F3207       F  0.80200231  0.46747689  0.01332388    -0.13900
F3208       F  0.69107100  0.50473231  0.01311332    -0.14400
F3209       F  0.76977275  0.46158964  0.03537770    -0.16700
F3210       F  0.72358827  0.51110193  0.99125929    -0.15300
F3211       F  0.74805824  0.45486913  0.98017396    -0.15300
F3212       F  0.84526533  0.51872179  0.97608819    -0.16700
C3213       C  0.48462590  0.25919281  0.04449381     0.13400
C3214       C  0.50579949  0.25744252  0.03482092     0.00300
C3215       C  0.50902359  0.23170409  0.02788933     0.15300
C3216       C  0.49211143  0.20803336  0.03093711     0.24700
C3217       C  0.47157040  0.20955643  0.04100724    -0.41600
C3218       C  0.46768614  0.23579893  0.04748387     0.31800
C3219       C  0.52602770  0.28164792  0.03321156     0.00400
F3220       F  0.52904886  0.22924086  0.01838153    -0.13900
F3221       F  0.44792825  0.23878503  0.05708738    -0.14400
C3222       C  0.55485400  0.27801978  0.03633703     0.15300
C3223       C  0.57280828  0.30150074  0.03772662     0.24700
C3224       C  0.56252305  0.32933743  0.03598762    -0.41500
C3225       C  0.53408272  0.33289485  0.03206236     0.31700
C3226       C  0.51610969  0.30928552  0.03059166     0.13400
F3227       F  0.56519034  0.25183932  0.03907621    -0.13900
F3228       F  0.52299133  0.35928712  0.03078348    -0.14400
F3229       F  0.60009729  0.29708042  0.04147516    -0.16700
F3230       F  0.48856052  0.31350541  0.02722407    -0.15300
F3231       F  0.48143757  0.28324116  0.05169316    -0.15300
F3232       F  0.49701102  0.18323853  0.02453530    -0.16700
C3233       C  0.47078593  0.39536027  0.12195838     0.13400
C3234       C  0.45801574  0.38227101  0.11104701     0.00300
C3235       C  0.42849845  0.37928007  0.11054501     0.15300
C3236       C  0.41202975  0.38771907  0.12124227     0.24700
C3237       C  0.42510508  0.39882186  0.13255435    -0.41600
C3238       C  0.45445788  0.40327999  0.13271430     0.31800
C3239       C  0.47582282  0.37403559  0.09989850     0.00400
F3240       F  0.41585888  0.36719217  0.09994057    -0.13900
F3241       F  0.46737933  0.41431110  0.14349893    -0.14400
C3242       C  0.49947927  0.35638526  0.10195668     0.15300
C3243       C  0.52261285  0.35795995  0.09348935     0.24700
C3244       C  0.52163728  0.37681566  0.08290015    -0.41500
C3245       C  0.49590226  0.38999129  0.07951353     0.31700
C3246       C  0.47318244  0.38909241  0.08814499     0.13400
F3247       F  0.50160587  0.34064076  0.11304852    -0.13900
F3248       F  0.49412547  0.40689079  0.06878504    -0.14400
F3249       F  0.54710977  0.34447989  0.09673345    -0.16700
F3250       F  0.45047584  0.40620524  0.08596521    -0.15300
F3251       F  0.49914857  0.40026956  0.12221181    -0.15300
F3252       F  0.38368237  0.38285592  0.12097956    -0.16700
C3253       C  0.61779566  0.36246033  0.13542779     0.13400
C3254       C  0.61998410  0.33287853  0.13520777     0.00300
C3255       C  0.62732224  0.31884801  0.12348544     0.15300
C3256       C  0.63209319  0.33411716  0.11209643     0.24700
C3257       C  0.62962481  0.36372674  0.11220664    -0.41600
C3258       C  0.62256594  0.37786341  0.12396515     0.31800
C3259       C  0.61918223  0.31630309  0.14734159     0.00400
F3260       F  0.63134796  0.29035475  0.12322894    -0.13900
F3261       F  0.61984438  0.40645786  0.12431908    -0.14400
C3262       C  0.60203805  0.29216249  0.14785086     0.15300
C3263       C  0.61049599  0.26909696  0.15536932     0.24700
C3264       C  0.63614725  0.27024877  0.16247998    -0.41500
C3265       C  0.64992403  0.29647279  0.16394116     0.31700
C3266       C  0.64148466  0.31942991  0.15632986     0.13400
F3267       F  0.57955583  0.28940360  0.13960247    -0.13900
F3268       F  0.67316777  0.29920420  0.17171686    -0.14400
F3269       F  0.59545645  0.24473937  0.15431953    -0.16700
F3270       F  0.65761915  0.34316616  0.15634943    -0.15300
F3271       F  0.61142671  0.37633176  0.14675551    -0.15300
F3272       F  0.64018020  0.31998209  0.10106271    -0.16700
C3273       C  0.77163524  0.75946425  0.22293875     0.13400
C3274       C  0.77152616  0.75947886  0.23678158     0.00300
C3275       C  0.77567548  0.73361492  0.24338722     0.15300
C3276       C  0.78107511  0.70867155  0.23632681     0.24700
C3277       C  0.78196279  0.70893251  0.22255337    -0.41600
C3278       C  0.77618096  0.73431933  0.21591179     0.31800
C3279       C  0.76601824  0.78611163  0.24430525     0.00400
F3280       F  0.77482292  0.73249118  0.25670186    -0.13900
F3281       F  0.77707511  0.73521975  0.20259949    -0.14400
C3282       C  0.74205338  0.80272867  0.24143201     0.15300
C3283       C  0.73506499  0.82615892  0.24923001     0.24700
C3284       C  0.75133093  0.83308626  0.26045432    -0.41500
C3285       C  0.77640291  0.81753040  0.26280620     0.31700
C3286       C  0.78373926  0.79444879  0.25476760     0.13400
F3287       F  0.72419068  0.79520629  0.23155996    -0.13900
F3288       F  0.79301300  0.82342833  0.27335638    -0.14400
F3289       F  0.71129798  0.84102454  0.24614571    -0.16700
F3290       F  0.80781408  0.77973050  0.25747093    -0.15300
F3291       F  0.76887362  0.78406389  0.21619768    -0.15300
F3292       F  0.78619700  0.68427549  0.24293270    -0.16700
C3293       C  0.77779244  0.48136549  0.25625071     0.13400
C3294       C  0.79041491  0.50820005  0.25560552     0.00300
C3295       C  0.80548844  0.51830557  0.26656712     0.15300
C3296       C  0.80959307  0.50105873  0.27760357     0.24700
C3297       C  0.79839662  0.47342498  0.27797089    -0.41600
C3298       C  0.78154067  0.46419989  0.26734547     0.31800
C3299       C  0.79160237  0.52369474  0.24291785     0.00400
F3300       F  0.81799217  0.54412303  0.26620519    -0.13900
F3301       F  0.77076710  0.43760467  0.26714644    -0.14400
C3302       C  0.77750900  0.54966554  0.24113128     0.15300
C3303       C  0.78159529  0.56541904  0.22958682     0.24700
C3304       C  0.80017364  0.55556371  0.21968327    -0.41500
C3305       C  0.81293513  0.52872916  0.22127379     0.31700
C3306       C  0.80868809  0.51306638  0.23273621     0.13400
F3307       F  0.76034245  0.56007559  0.25070626    -0.13900
F3308       F  0.83039377  0.51794138  0.21189240    -0.14400
F3309       F  0.76875071  0.59106520  0.22850400    -0.16700
F3310       F  0.82248663  0.48799636  0.23418504    -0.15300
F3311       F  0.76311328  0.47116769  0.24579085    -0.15300
F3312       F  0.82571217  0.51090619  0.28768133    -0.16700
C3313       C  0.05952851  0.76176982  0.21282296     0.13400
C3314       C  0.03355150  0.76848847  0.20663306     0.00300
C3315       C  0.03215284  0.79312742  0.19898863     0.15300
C3316       C  0.05617492  0.81000483  0.19711561     0.24700
C3317       C  0.08251554  0.80297810  0.20291676    -0.41600
C3318       C  0.08368046  0.77898921  0.21110320     0.31800
C3319       C  0.00852720  0.74891787  0.20706458     0.00400
F3320       F  0.00778616  0.80004171  0.19263357    -0.13900
F3321       F  0.10855283  0.77117414  0.21677172    -0.14400
C3322       C  0.98180266  0.75819691  0.21164674     0.15300
C3323       C  0.95757589  0.74087805  0.21044061     0.24700
C3324       C  0.95938724  0.71410763  0.20432118    -0.41500
C3325       C  0.98641827  0.70458366  0.20018545     0.31700
C3326       C  0.01054515  0.72168692  0.20154167     0.13400
F3327       F  0.97895914  0.78456803  0.21682743    -0.13900
F3328       F  0.98937755  0.67890281  0.19430522    -0.14400
F3329       F  0.93207265  0.75116120  0.21441392    -0.16700
F3330       F  0.03561466  0.71234034  0.19657411    -0.15300
F3331       F  0.06169896  0.73810100  0.22027271    -0.15300
F3332       F  0.05378793  0.83291793  0.18917447    -0.16700
C3333       C  0.95124173  0.63254004  0.08442134     0.13400
C3334       C  0.95255684  0.65844001  0.09114473     0.00300
C3335       C  0.97489885  0.67706696  0.08862887     0.15300
C3336       C  0.99839339  0.66768115  0.08157296     0.24700
C3337       C  0.99958788  0.63944997  0.07699053    -0.41600
C3338       C  0.97465647  0.62306540  0.07728621     0.31800
C3339       C  0.93757216  0.66089432  0.10369152     0.00400
F3340       F  0.97599102  0.70254168  0.09483257    -0.13900
F3341       F  0.97382429  0.59674794  0.07189817    -0.14400
C3342       C  0.95364167  0.65829872  0.11524612     0.15300
C3343       C  0.94036194  0.65551360  0.12728259     0.24700
C3344       C  0.91063963  0.65515261  0.12803683    -0.41500
C3345       C  0.89442528  0.65856007  0.11648530     0.31700
C3346       C  0.90792019  0.66143240  0.10434929     0.13400
F3347       F  0.98239725  0.65672831  0.11479955    -0.13900
F3348       F  0.86566053  0.65915204  0.11691372    -0.14400
F3349       F  0.95676895  0.65176959  0.13811920    -0.16700
F3350       F  0.89219638  0.66424737  0.09325080    -0.15300
F3351       F  0.92924581  0.61460669  0.08643252    -0.15300
F3352       F  0.02105096  0.68520350  0.08065296    -0.16700
C3353       C  0.94483334  0.84325314  0.13188773     0.13400
C3354       C  0.92071141  0.83496247  0.13889280     0.00300
C3355       C  0.89412188  0.84696207  0.13583711     0.15300
C3356       C  0.89139750  0.86516386  0.12518440     0.24700
C3357       C  0.91499258  0.87070386  0.11729527    -0.41600
C3358       C  0.94194512  0.86078020  0.12102002     0.31800
C3359       C  0.92199285  0.81019486  0.14753300     0.00400
F3360       F  0.87034052  0.83892107  0.14232020    -0.13900
F3361       F  0.96524888  0.86710676  0.11378568    -0.14400
C3362       C  0.90927481  0.81122388  0.15997029     0.15300
C3363       C  0.90219051  0.78616849  0.16629130     0.24700
C3364       C  0.90897205  0.76001946  0.16045886    -0.41500
C3365       C  0.92506596  0.75907003  0.14892211     0.31700
C3366       C  0.93099688  0.78403176  0.14230086     0.13400
F3367       F  0.90153313  0.83638816  0.16539544    -0.13900
F3368       F  0.93194454  0.73390163  0.14324314    -0.14400
F3369       F  0.88709868  0.78736375  0.17763761    -0.16700
F3370       F  0.94252516  0.78231024  0.13010063    -0.15300
F3371       F  0.97080557  0.83276400  0.13503438    -0.15300
F3372       F  0.86533128  0.87512476  0.12184957    -0.16700
C3373       C  0.72618160  0.55946440  0.13883359     0.13400
C3374       C  0.71703768  0.57668734  0.12831475     0.00300
C3375       C  0.71968728  0.60626469  0.12988493     0.15300
C3376       C  0.73310991  0.61791042  0.14111828     0.24700
C3377       C  0.74462560  0.60041051  0.15102837    -0.41600
C3378       C  0.74037683  0.57104457  0.14981479     0.31800
C3379       C  0.70756356  0.56331133  0.11543868     0.00400
F3380       F  0.71125785  0.62386952  0.12011550    -0.13900
F3381       F  0.75223523  0.55323914  0.15870923    -0.14400
C3382       C  0.68102965  0.56927754  0.10953178     0.15300
C3383       C  0.67173010  0.55410535  0.09824771     0.24700
C3384       C  0.68876616  0.53270043  0.09254709    -0.41500
C3385       C  0.71588784  0.52816711  0.09800153     0.31700
C3386       C  0.72513593  0.54318824  0.10916318     0.13400
F3387       F  0.66325409  0.58839449  0.11518763    -0.13900
F3388       F  0.73301870  0.50775471  0.09289926    -0.14400
F3389       F  0.64521561  0.55883543  0.09353410    -0.16700
F3390       F  0.75122869  0.53731509  0.11411797    -0.15300
F3391       F  0.72251370  0.53101717  0.13818813    -0.15300
F3392       F  0.73687765  0.64634350  0.14183040    -0.16700
C3393       C  0.79884175  0.23402330  0.74692455     0.13400
C3394       C  0.77333236  0.24899727  0.74879085     0.00300
C3395       C  0.75436182  0.23925625  0.75848170     0.15300
C3396       C  0.76150141  0.21626860  0.76660027     0.24700
C3397       C  0.78745114  0.20173804  0.76495698    -0.41600
C3398       C  0.80546942  0.21043888  0.75462439     0.31800
C3399       C  0.76659724  0.27464313  0.74069380     0.00400
F3400       F  0.72877260  0.25202917  0.76013462    -0.13900
F3401       F  0.83032660  0.19683731  0.75216426    -0.14400
C3402       C  0.76967868  0.27416054  0.72689874     0.15300
C3403       C  0.76200306  0.29766649  0.71931050     0.24700
C3404       C  0.75026794  0.32192130  0.72524899    -0.41500
C3405       C  0.74798761  0.32288704  0.73900852     0.31700
C3406       C  0.75658950  0.29976843  0.74666322     0.13400
F3407       F  0.77854951  0.25035104  0.72060860    -0.13900
F3408       F  0.73687566  0.34609308  0.74503068    -0.14400
F3409       F  0.76388080  0.29576586  0.70602489    -0.16700
F3410       F  0.75490821  0.30193811  0.75993996    -0.15300
F3411       F  0.81821283  0.24290067  0.73800037    -0.15300
F3412       F  0.74321771  0.20881381  0.77626332    -0.16700
C3413       C  0.72660614  0.51431643  0.72798613     0.13400
C3414       C  0.74277580  0.50411468  0.73857865     0.00300
C3415       C  0.75437416  0.47675478  0.73788824     0.15300
C3416       C  0.74882559  0.45936314  0.72703161     0.24700
C3417       C  0.73123025  0.46898561  0.71673913    -0.41600
C3418       C  0.72078782  0.49689439  0.71719308     0.31800
C3419       C  0.74452738  0.52093217  0.75085334     0.00400
F3420       F  0.77013913  0.46650123  0.74798671    -0.13900
F3421       F  0.70415082  0.50703829  0.70737549    -0.14400
C3422       C  0.73128305  0.51100992  0.76229325     0.15300
C3423       C  0.72791205  0.52880259  0.77317982     0.24700
C3424       C  0.73786342  0.55681456  0.77286303    -0.41500
C3425       C  0.75272328  0.56615405  0.76168341     0.31700
C3426       C  0.75614508  0.54824617  0.75079859     0.13400
F3427       F  0.71988673  0.48468021  0.76261091    -0.13900
F3428       F  0.76183889  0.59330786  0.76082308    -0.14400
F3429       F  0.71375230  0.51903614  0.78383754    -0.16700
F3430       F  0.76971214  0.55794964  0.73996240    -0.15300
F3431       F  0.71489322  0.54059289  0.72847809    -0.15300
F3432       F  0.75899439  0.43243606  0.72708038    -0.16700
C3433       C  0.00821315  0.51315478  0.52035138     0.13400
C3434       C  0.00793176  0.51648258  0.50653981     0.00300
C3435       C  0.98278370  0.52652142  0.50064598     0.15300
C3436       C  0.95960431  0.53503664  0.50832185     0.24700
C3437       C  0.96009465  0.53216894  0.52206505    -0.41600
C3438       C  0.98428029  0.52014755  0.52796254     0.31800
C3439       C  0.03332146  0.50900758  0.49823580     0.00400
F3440       F  0.98047129  0.52806410  0.48737996    -0.13900
F3441       F  0.98558252  0.51703823  0.54120716    -0.14400
C3442       C  0.04761457  0.48315474  0.50004550     0.15300
C3443       C  0.06988810  0.47502905  0.49175054     0.24700
C3444       C  0.07806938  0.49195785  0.48092612    -0.41500
C3445       C  0.06466678  0.51845414  0.47946216     0.31700
C3446       C  0.04278545  0.52695352  0.48805343     0.13400
F3447       F  0.03885432  0.46459447  0.50933208    -0.13900
F3448       F  0.07155529  0.53558496  0.46929364    -0.14400
F3449       F  0.08239370  0.44956578  0.49401866    -0.16700
F3450       F  0.03041172  0.55260264  0.48617648    -0.15300
F3451       F  0.03210996  0.50447725  0.52662184    -0.15300
F3452       F  0.93667303  0.54664461  0.50229624    -0.16700
C3453       C  0.80187525  0.52974032  0.50658726     0.13400
C3454       C  0.77524233  0.54294184  0.50530389     0.00300
C3455       C  0.76515188  0.55980016  0.51572288     0.15300
C3456       C  0.78199565  0.56474113  0.52684880     0.24700
C3457       C  0.80943640  0.55298744  0.52782836    -0.41600
C3458       C  0.81878748  0.53460059  0.51774847     0.31800
C3459       C  0.75916168  0.54179876  0.49267730     0.00400
F3460       F  0.73963184  0.57302354  0.51475551    -0.13900
F3461       F  0.84512664  0.52294613  0.51820153    -0.14400
C3462       C  0.73165757  0.53048887  0.49213387     0.15300
C3463       C  0.71484431  0.53373290  0.48082658     0.24700
C3464       C  0.72508814  0.54866958  0.46984024    -0.41500
C3465       C  0.75335752  0.55835963  0.47013473     0.31700
C3466       C  0.77019052  0.55486000  0.48140553     0.13400
F3467       F  0.72067047  0.51721334  0.50276759    -0.13900
F3468       F  0.76443155  0.57218151  0.45966960    -0.14400
F3469       F  0.68775295  0.52416128  0.48105455    -0.16700
F3470       F  0.79673618  0.56588052  0.48161060    -0.15300
F3471       F  0.81195689  0.51296396  0.49678234    -0.15300
F3472       F  0.77180701  0.58193788  0.53648008    -0.16700
C3473       C  0.85122657  0.46875605  0.61310670     0.13400
C3474       C  0.82319175  0.47391092  0.61749956     0.00300
C3475       C  0.80690598  0.49365513  0.61029626     0.15300
C3476       C  0.81844348  0.50824881  0.59944086     0.24700
C3477       C  0.84673217  0.50384420  0.59532510    -0.41600
C3478       C  0.86290499  0.48375841  0.60233745     0.31800
C3479       C  0.81087057  0.45877603  0.62943308     0.00400
F3480       F  0.77970967  0.49918170  0.61385762    -0.13900
F3481       F  0.89075061  0.48017460  0.59940283    -0.14400
C3482       C  0.79913208  0.47384614  0.64020570     0.15300
C3483       C  0.78536223  0.45963372  0.65067731     0.24700
C3484       C  0.78291017  0.42986193  0.65079743    -0.41500
C3485       C  0.79582224  0.41484189  0.64035076     0.31700
C3486       C  0.80968088  0.42896134  0.62994004     0.13400
F3487       F  0.80044337  0.50253216  0.64048131    -0.13900
F3488       F  0.79349239  0.38624522  0.63980268    -0.14400
F3489       F  0.77281720  0.47516796  0.66030765    -0.16700
F3490       F  0.82036490  0.41336969  0.61986211    -0.15300
F3491       F  0.86798763  0.45028561  0.61973712    -0.15300
F3492       F  0.80224857  0.52797050  0.59327065    -0.16700
C3493       C  0.77458842  0.80749286  0.74734899     0.13400
C3494       C  0.76704551  0.78170460  0.74126945     0.00300
C3495       C  0.76408014  0.78119115  0.72747536     0.15300
C3496       C  0.76854720  0.80557230  0.72000158     0.24700
C3497       C  0.77753087  0.83082277  0.72600459    -0.41600
C3498       C  0.78024286  0.83162467  0.73976718     0.31800
C3499       C  0.76177853  0.75543527  0.74912874     0.00400
F3500       F  0.75838631  0.75659458  0.72107731    -0.13900
F3501       F  0.78888623  0.85572580  0.74584307    -0.14400
C3502       C  0.73732539  0.73932691  0.74675638     0.15300
C3503       C  0.73232825  0.71431941  0.75361773     0.24700
C3504       C  0.75086274  0.70513215  0.76371873    -0.41500
C3505       C  0.77560663  0.72106406  0.76602717     0.31700
C3506       C  0.78111032  0.74576722  0.75874255     0.13400
F3507       F  0.71746979  0.74826551  0.73801641    -0.13900
F3508       F  0.79443412  0.71295764  0.77538644    -0.14400
F3509       F  0.70845404  0.69972757  0.75054181    -0.16700
F3510       F  0.80552032  0.76007480  0.76103755    -0.15300
F3511       F  0.77669522  0.80936514  0.76062139    -0.15300
F3512       F  0.76632846  0.80374186  0.70672993    -0.16700
C3513       C  0.79803130  0.02098711  0.72917974     0.13400
C3514       C  0.78201812  0.01156395  0.73990491     0.00300
C3515       C  0.76860044  0.98506264  0.73911169     0.15300
C3516       C  0.77304286  0.96731608  0.72818272     0.24700
C3517       C  0.79065114  0.97606861  0.71780955    -0.41600
C3518       C  0.80186034  0.00369482  0.71815606     0.31800
C3519       C  0.78295139  0.02786952  0.75240620     0.00400
F3520       F  0.75247480  0.97577685  0.74923897    -0.13900
F3521       F  0.81820918  0.01330654  0.70815215    -0.14400
C3522       C  0.77144848  0.05531472  0.75322836     0.15300
C3523       C  0.77723042  0.07267839  0.76413939     0.24700
C3524       C  0.79514837  0.06302883  0.77428853    -0.41500
C3525       C  0.80539651  0.03498204  0.77370452     0.31700
C3526       C  0.79921642  0.01757561  0.76292647     0.13400
F3527       F  0.75573279  0.06573111  0.74315415    -0.13900
F3528       F  0.82239381  0.02470945  0.78336120    -0.14400
F3529       F  0.76710691  0.09961001  0.76426163    -0.16700
F3530       F  0.81086314  0.99127525  0.76232398    -0.15300
F3531       F  0.81198243  0.04604032  0.72984214    -0.15300
F3532       F  0.76230923  0.94070387  0.72832865    -0.16700
C3533       C  0.93824562  0.74838979  0.64509226     0.13400
C3534       C  0.92703248  0.72248016  0.64946344     0.00300
C3535       C  0.91269566  0.72155392  0.66154726     0.15300
C3536       C  0.90534975  0.74668059  0.66791641     0.24700
C3537       C  0.91320806  0.77275174  0.66248042    -0.41600
C3538       C  0.93165382  0.77340725  0.65171346     0.31800
C3539       C  0.92400705  0.69894803  0.63999812     0.00400
F3540       F  0.90306922  0.69660664  0.66635376    -0.13900
F3541       F  0.94010248  0.79845767  0.64655152    -0.14400
C3542       C  0.94730031  0.68955975  0.63255246     0.15300
C3543       C  0.94291914  0.67320977  0.62130664     0.24700
C3544       C  0.91530243  0.66568645  0.61753752    -0.41500
C3545       C  0.89229327  0.67286180  0.62555651     0.31700
C3546       C  0.89654411  0.68955069  0.63667701     0.13400
F3547       F  0.97407609  0.69743015  0.63579045    -0.13900
F3548       F  0.86546155  0.66577765  0.62202001    -0.14400
F3549       F  0.96553327  0.66525617  0.61389270    -0.16700
F3550       F  0.87344801  0.69859726  0.64347869    -0.15300
F3551       F  0.95226806  0.75012521  0.63348386    -0.15300
F3552       F  0.88866727  0.74571176  0.67877309    -0.16700
C3553       C  0.55402344  0.04824453  0.49447615     0.13400
C3554       C  0.53798233  0.02364003  0.49638425     0.00300
C3555       C  0.54665114  0.00462674  0.50628966     0.15300
C3556       C  0.57000441  0.01083054  0.51445908     0.24700
C3557       C  0.58508921  0.03640378  0.51301096    -0.41600
C3558       C  0.57735308  0.05435233  0.50249237     0.31800
C3559       C  0.51203275  0.01842010  0.48819018     0.00400
F3560       F  0.53222504  0.98018201  0.50821224    -0.13900
F3561       F  0.59161408  0.07873076  0.50019190    -0.14400
C3562       C  0.51328302  0.01943806  0.47434632     0.15300
C3563       C  0.48897025  0.01453130  0.46668000     0.24700
C3564       C  0.46296791  0.00783502  0.47264990    -0.41500
C3565       C  0.46155334  0.00740978  0.48645559     0.31700
C3566       C  0.48563685  0.01307475  0.49413433     0.13400
F3567       F  0.53841039  0.02378980  0.46819416    -0.13900
F3568       F  0.43687678  0.00063215  0.49251406    -0.14400
F3569       F  0.49142071  0.01407756  0.45339565    -0.16700
F3570       F  0.48313540  0.01320392  0.50741624    -0.15300
F3571       F  0.54614425  0.06742337  0.48526099    -0.15300
F3572       F  0.57706569  0.99224351  0.52407041    -0.16700
C3573       C  0.76741060  0.05577714  0.51267699     0.13400
C3574       C  0.75766684  0.04003794  0.50186770     0.00300
C3575       C  0.73097899  0.02703337  0.50262371     0.15300
C3576       C  0.71376424  0.03079192  0.51379489     0.24700
C3577       C  0.72266346  0.04828358  0.52429208    -0.41600
C3578       C  0.75011673  0.06003985  0.52371356     0.31800
C3579       C  0.77349059  0.04135683  0.48923725     0.00400
F3580       F  0.72085163  0.01217427  0.49220255    -0.13900
F3581       F  0.75992427  0.07659624  0.53364367    -0.14400
C3582       C  0.79317852  0.02041648  0.48549419     0.15300
C3583       C  0.81070638  0.02437822  0.47443868     0.24700
C3584       C  0.80873802  0.04943231  0.46690837    -0.41500
C3585       C  0.78735041  0.06924993  0.47026284     0.31700
C3586       C  0.77035323  0.06539118  0.48134883     0.13400
F3587       F  0.79622962  0.99669586  0.49284415    -0.13900
F3588       F  0.78320014  0.09300585  0.46303823    -0.14400
F3589       F  0.83034594  0.00425372  0.47150855    -0.16700
F3590       F  0.75135193  0.08583191  0.48470033    -0.15300
F3591       F  0.79320824  0.06839420  0.51220827    -0.15300
F3592       F  0.68751757  0.01911359  0.51385440    -0.16700
C3593       C  0.63007039  0.20478653  0.66225918     0.13400
C3594       C  0.61357040  0.20451164  0.65078414     0.00300
C3595       C  0.59911429  0.22930266  0.64696854     0.15300
C3596       C  0.60462678  0.25480687  0.65335977     0.24700
C3597       C  0.62497991  0.25573657  0.66338702    -0.41600
C3598       C  0.63611220  0.23038704  0.66843117     0.31800
C3599       C  0.61698778  0.18129283  0.64120634     0.00400
F3600       F  0.58249791  0.22967608  0.63607013    -0.13900
F3601       F  0.65460702  0.23070952  0.67866724    -0.14400
C3602       C  0.59326910  0.16955401  0.63492147     0.15300
C3603       C  0.59680259  0.15383665  0.62341417     0.24700
C3604       C  0.62407796  0.14904824  0.61836336    -0.41500
C3605       C  0.64789308  0.15762450  0.62549273     0.31700
C3606       C  0.64443373  0.17433483  0.63668105     0.13400
F3607       F  0.56672054  0.17465187  0.63952769    -0.13900
F3608       F  0.67441311  0.15169535  0.62105802    -0.14400
F3609       F  0.57365113  0.14381156  0.61700815    -0.16700
F3610       F  0.66783951  0.18581555  0.64233247    -0.15300
F3611       F  0.64272644  0.18073552  0.66662111    -0.15300
F3612       F  0.59280712  0.27893993  0.64865580    -0.16700
C3613       C  0.67841197  0.96242064  0.61107095     0.13400
C3614       C  0.70768075  0.96423447  0.61382373     0.00300
C3615       C  0.72507617  0.97694490  0.60422289     0.15300
C3616       C  0.71336990  0.98900039  0.59271822     0.24700
C3617       C  0.68384921  0.98904372  0.59042337    -0.41600
C3618       C  0.66670721  0.97485569  0.59964844     0.31800
C3619       C  0.71989820  0.95420766  0.62683871     0.00400
F3620       F  0.75349395  0.97864728  0.60619729    -0.13900
F3621       F  0.63810017  0.97535401  0.59822020    -0.14400
C3622       C  0.71605029  0.92620611  0.63135319     0.15300
C3623       C  0.72954722  0.91646185  0.64293957     0.24700
C3624       C  0.74727673  0.93440166  0.65034935    -0.41500
C3625       C  0.74983439  0.96273333  0.64622825     0.31700
C3626       C  0.73628225  0.97253195  0.63475462     0.13400
F3627       F  0.70086211  0.90759298  0.62403618    -0.13900
F3628       F  0.76720960  0.98057576  0.65291201    -0.14400
F3629       F  0.72720330  0.88880035  0.64628616    -0.16700
F3630       F  0.73994172  0.99992209  0.63118350    -0.15300
F3631       F  0.66068778  0.95057677  0.61996955    -0.15300
F3632       F  0.73077945  0.00274481  0.58428790    -0.16700
C3633       C  0.26924237  0.78970272  0.74965157     0.13400
C3634       C  0.26252989  0.76424076  0.75611144     0.00300
C3635       C  0.26158824  0.76449594  0.76997725     0.15300
C3636       C  0.26822701  0.78916424  0.77712865     0.24700
C3637       C  0.27702114  0.81387796  0.77064306    -0.41600
C3638       C  0.27687834  0.81398486  0.75681408     0.31800
C3639       C  0.25645327  0.73777006  0.74833589     0.00400
F3640       F  0.25585714  0.74041284  0.77667818    -0.13900
F3641       F  0.28484560  0.83755040  0.75020700    -0.14400
C3642       C  0.27477777  0.72863816  0.73819045     0.15300
C3643       C  0.26729336  0.70605830  0.72981976     0.24700
C3644       C  0.24152839  0.69147631  0.73156007    -0.41500
C3645       C  0.22463699  0.69895873  0.74254378     0.31700
C3646       C  0.23171221  0.72201080  0.75061639     0.13400
F3647       F  0.29979621  0.74203373  0.73616967    -0.13900
F3648       F  0.20024848  0.68488830  0.74516848    -0.14400
F3649       F  0.28460632  0.69965065  0.71957961    -0.16700
F3650       F  0.21327749  0.72991771  0.76019436    -0.15300
F3651       F  0.26868558  0.79105331  0.73633407    -0.15300
F3652       F  0.26815591  0.78817684  0.79044916    -0.16700
C3653       C  0.24756014  0.54618046  0.73922965     0.13400
C3654       C  0.23147677  0.52129895  0.74058411     0.00300
C3655       C  0.21269437  0.51386483  0.73041330     0.15300
C3656       C  0.20910957  0.53142558  0.71945793     0.24700
C3657       C  0.22438982  0.55697725  0.71827095    -0.41600
C3658       C  0.24412768  0.56378623  0.72820650     0.31800
C3659       C  0.23274649  0.50394551  0.75286868     0.00400
F3660       F  0.19660941  0.49019448  0.73138340    -0.13900
F3661       F  0.25894556  0.58832222  0.72768137    -0.14400
C3662       C  0.22542422  0.51595351  0.76511229     0.15300
C3663       C  0.22326398  0.49898927  0.77641080     0.24700
C3664       C  0.22898926  0.46974524  0.77575892    -0.41500
C3665       C  0.23756104  0.45803779  0.76365160     0.31700
C3666       C  0.23908842  0.47482007  0.75232250     0.13400
F3667       F  0.21882372  0.54388835  0.76597910    -0.13900
F3668       F  0.24266759  0.42981918  0.76260122    -0.14400
F3669       F  0.21517724  0.51107465  0.78793717    -0.16700
F3670       F  0.24603007  0.46238864  0.74071183    -0.15300
F3671       F  0.26628195  0.55374629  0.74873384    -0.15300
F3672       F  0.18990731  0.52367655  0.71017910    -0.16700
C3673       C  0.02254799  0.73188213  0.69635462     0.13400
C3674       C  0.02274912  0.75184605  0.70661165     0.00300
C3675       C  0.04715754  0.75354991  0.71459725     0.15300
C3676       C  0.07111487  0.73631118  0.71209189     0.24700
C3677       C  0.07143947  0.71724167  0.70137431    -0.41600
C3678       C  0.04639453  0.71493966  0.69374262     0.31800
C3679       C  0.99826992  0.77207338  0.70813203     0.00400
F3680       F  0.04794400  0.77221560  0.72475305    -0.13900
F3681       F  0.04494915  0.69661181  0.68345673    -0.14400
C3682       C  0.97049617  0.76227349  0.71044908     0.15300
C3683       C  0.94701009  0.78085863  0.70985083     0.24700
C3684       C  0.95067739  0.80950909  0.70646552    -0.41500
C3685       C  0.97865138  0.81948358  0.70483150     0.31700
C3686       C  0.00207600  0.80111127  0.70576805     0.13400
F3687       F  0.96600712  0.73437840  0.71275376    -0.13900
F3688       F  0.98328086  0.84699634  0.70171666    -0.14400
F3689       F  0.92056057  0.77032281  0.71159773    -0.16700
F3690       F  0.02841234  0.81139995  0.70340360    -0.15300
F3691       F  0.99954704  0.72964725  0.68838796    -0.15300
F3692       F  0.09437015  0.73923200  0.71983423    -0.16700
C3693       C  0.09924208  0.64218483  0.60814828     0.13400
C3694       C  0.09694555  0.66896893  0.60218149     0.00300
C3695       C  0.11264027  0.69180106  0.60714212     0.15300
C3696       C  0.12890632  0.68831205  0.61849553     0.24700
C3697       C  0.12969633  0.66193689  0.62476823    -0.41600
C3698       C  0.11580824  0.63868880  0.61931013     0.31800
C3699       C  0.07455132  0.67327222  0.59234926     0.00400
F3700       F  0.11104254  0.71760807  0.60137445    -0.13900
F3701       F  0.11655110  0.61315981  0.62539702    -0.14400
C3702       C  0.05053014  0.68939351  0.59580029     0.15300
C3703       C  0.02437524  0.68335281  0.59003534     0.24700
C3704       C  0.02229542  0.66087408  0.58104057    -0.41500
C3705       C  0.04716411  0.64870117  0.57587345     0.31700
C3706       C  0.07329473  0.65503160  0.58148257     0.13400
F3707       F  0.05157289  0.70819713  0.60590702    -0.13900
F3708       F  0.04588775  0.62909203  0.56610568    -0.14400
F3709       F  0.00083203  0.69715188  0.59434016    -0.16700
F3710       F  0.09676378  0.64067735  0.57748105    -0.15300
F3711       F  0.08346732  0.61999027  0.60386735    -0.15300
F3712       F  0.14289496  0.71079636  0.62368556    -0.16700
C3713       C  0.54838083  0.52439137  0.49769940     0.13400
C3714       C  0.52334153  0.51483946  0.49159073     0.00300
C3715       C  0.52354615  0.51078287  0.47785709     0.15300
C3716       C  0.54769188  0.51722472  0.47038235     0.24700
C3717       C  0.57202005  0.52856228  0.47638271    -0.41600
C3718       C  0.57228413  0.53153383  0.49016378     0.31800
C3719       C  0.49708873  0.50899788  0.49943988     0.00400
F3720       F  0.49971178  0.50218122  0.47153709    -0.13900
F3721       F  0.59544844  0.54233412  0.49628599    -0.14400
C3722       C  0.48502944  0.52960271  0.50784720     0.15300
C3723       C  0.46093530  0.52341444  0.51550440     0.24700
C3724       C  0.44791160  0.49662912  0.51472906    -0.41500
C3725       C  0.45906372  0.47683479  0.50558118     0.31700
C3726       C  0.48362407  0.48265630  0.49839018     0.13400
F3727       F  0.49657000  0.55581873  0.50864839    -0.13900
F3728       F  0.44691649  0.45110942  0.50383109    -0.14400
F3729       F  0.45071325  0.54353725  0.52380817    -0.16700
F3730       F  0.49491931  0.46190820  0.49072843    -0.15300
F3731       F  0.54957554  0.52720851  0.51096677    -0.15300
F3732       F  0.54635809  0.51472232  0.45711212    -0.16700
C3733       C  0.26358631  0.48414120  0.47899505     0.13400
C3734       C  0.25282764  0.49655527  0.49053358     0.00300
C3735       C  0.22440074  0.50578882  0.49071261     0.15300
C3736       C  0.20662743  0.50101128  0.47983467     0.24700
C3737       C  0.21694785  0.48664009  0.46865326    -0.41600
C3738       C  0.24588419  0.47924987  0.46818455     0.31800
C3739       C  0.27026681  0.49582521  0.50274758     0.00400
F3740       F  0.21350736  0.51818110  0.50166144    -0.13900
F3741       F  0.25679279  0.46605733  0.45743717    -0.14400
C3742       C  0.29667335  0.50953105  0.50344694     0.15300
C3743       C  0.31539314  0.50417078  0.51393021     0.24700
C3744       C  0.30813853  0.48467711  0.52382831    -0.41500
C3745       C  0.28104109  0.47219068  0.52340370     0.31700
C3746       C  0.26229217  0.47788422  0.51306186     0.13400
F3747       F  0.30472845  0.52729856  0.49370014    -0.13900
F3748       F  0.27293304  0.45368527  0.53283863    -0.14400
F3749       F  0.34131397  0.51655602  0.51388862    -0.16700
F3750       F  0.23696423  0.46433957  0.51268711    -0.15300
F3751       F  0.29078687  0.47467534  0.47856280    -0.15300
F3752       F  0.17881124  0.50830759  0.48068309    -0.16700
C3753       C  0.52557197  0.31234058  0.53608404     0.13400
C3754       C  0.51567720  0.28492904  0.53919632     0.00300
C3755       C  0.48751987  0.28236330  0.54357764     0.15300
C3756       C  0.47000318  0.30623879  0.54507707     0.24700
C3757       C  0.47985623  0.33371309  0.54218099    -0.41600
C3758       C  0.50784594  0.33640962  0.53751869     0.31800
C3759       C  0.53478137  0.25916887  0.53898875     0.00400
F3760       F  0.47727585  0.25670845  0.54714346    -0.13900
F3761       F  0.51863251  0.36246885  0.53512037    -0.14400
C3762       C  0.55983265  0.25858941  0.54649883     0.15300
C3763       C  0.57519568  0.23328240  0.54818660     0.24700
C3764       C  0.56615819  0.20754593  0.54237998    -0.41500
C3765       C  0.54214847  0.20851372  0.53413860     0.31700
C3766       C  0.52667033  0.23395004  0.53248933     0.13400
F3767       F  0.56862608  0.28220561  0.55293271    -0.13900
F3768       F  0.53254031  0.18450420  0.52832528    -0.14400
F3769       F  0.59864505  0.23389034  0.55593034    -0.16700
F3770       F  0.50316694  0.23375251  0.52478832    -0.15300
F3771       F  0.55259073  0.31592803  0.53185141    -0.15300
F3772       F  0.44335055  0.30243612  0.54976389    -0.16700
C3773       C  0.54703467  0.34509458  0.58951369     0.13400
C3774       C  0.56747656  0.36234171  0.59550920     0.00300
C3775       C  0.56428210  0.39187162  0.59517516     0.15300
C3776       C  0.54029550  0.40403686  0.58963072     0.24700
C3777       C  0.51856344  0.38683016  0.58452986    -0.41600
C3778       C  0.52274980  0.35723526  0.58399639     0.31800
C3779       C  0.58834468  0.35063178  0.60475496     0.00400
F3780       F  0.58303754  0.40896960  0.60146876    -0.13900
F3781       F  0.50299761  0.33992291  0.57856108    -0.14400
C3782       C  0.61678133  0.35911761  0.60402072     0.15300
C3783       C  0.63325945  0.36057723  0.61542839     0.24700
C3784       C  0.62137729  0.35316131  0.62765356    -0.41500
C3785       C  0.59431737  0.34039067  0.62780615     0.31700
C3786       C  0.57804981  0.33911130  0.61645094     0.13400
F3787       F  0.62739725  0.36906202  0.59254373    -0.13900
F3788       F  0.58219823  0.33141416  0.63912731    -0.14400
F3789       F  0.65991472  0.37114139  0.61457439    -0.16700
F3790       F  0.55075568  0.33026299  0.61737147    -0.15300
F3791       F  0.54976493  0.31648736  0.58974297    -0.15300
F3792       F  0.53765380  0.43264775  0.59017971    -0.16700
C3793       C  0.34714388  0.57441671  0.60816321     0.13400
C3794       C  0.32262318  0.56577754  0.61512419     0.00300
C3795       C  0.30623051  0.54403874  0.60942642     0.15300
C3796       C  0.31510468  0.53001670  0.59790145     0.24700
C3797       C  0.34060325  0.53723399  0.59144195    -0.41600
C3798       C  0.35599690  0.56031362  0.59651852     0.31800
C3799       C  0.31383291  0.57920346  0.62815562     0.00400
F3800       F  0.28161894  0.53584172  0.61514724    -0.13900
F3801       F  0.38093879  0.56767681  0.59087717    -0.14400
C3802       C  0.31145516  0.60881307  0.62951962     0.15300
C3803       C  0.29995680  0.62118048  0.64098602     0.24700
C3804       C  0.29022523  0.60456212  0.65158421    -0.41500
C3805       C  0.29406939  0.57504255  0.65057802     0.31700
C3806       C  0.30587059  0.56256869  0.63911966     0.13400
F3807       F  0.31776813  0.62589418  0.61925342    -0.13900
F3808       F  0.28376228  0.55799067  0.66013697    -0.14400
F3809       F  0.29528602  0.64955190  0.64111977    -0.16700
F3810       F  0.30834133  0.53395957  0.63856139    -0.15300
F3811       F  0.36367957  0.59538467  0.61306103    -0.15300
F3812       F  0.29961748  0.50770655  0.59351428    -0.16700
C3813       C  0.27238534  0.23666798  0.74698149     0.13400
C3814       C  0.26122899  0.26030498  0.74031817     0.00300
C3815       C  0.25342262  0.25691988  0.72700049     0.15300
C3816       C  0.25820367  0.23117489  0.72037927     0.24700
C3817       C  0.27152211  0.20838662  0.72680403    -0.41600
C3818       C  0.27759990  0.21115743  0.74030319     0.31800
C3819       C  0.25726055  0.28806167  0.74735006     0.00400
F3820       F  0.24259629  0.27902222  0.72012376    -0.13900
F3821       F  0.28953988  0.18930114  0.74696728    -0.14400
C3822       C  0.27908574  0.30004986  0.75507221     0.15300
C3823       C  0.27395450  0.32415871  0.76292008     0.24700
C3824       C  0.24726596  0.33775774  0.76273032    -0.41500
C3825       C  0.22672736  0.32752160  0.75377870     0.31700
C3826       C  0.23118811  0.30245606  0.74670347     0.13400
F3827       F  0.30534057  0.28816775  0.75519341    -0.13900
F3828       F  0.20131340  0.34070280  0.75238500    -0.14400
F3829       F  0.29488496  0.33356542  0.77097278    -0.16700
F3830       F  0.20915711  0.29137590  0.73983781    -0.15300
F3831       F  0.27850017  0.23827127  0.75999728    -0.15300
F3832       F  0.25185719  0.22939426  0.70739367    -0.16700
C3833       C  0.30331597  0.01149876  0.76462259     0.13400
C3834       C  0.28795255  0.00149446  0.75376580     0.00300
C3835       C  0.27700345  0.97388170  0.75401235     0.15300
C3836       C  0.28209471  0.95624320  0.76485003     0.24700
C3837       C  0.29842502  0.96598451  0.77558194    -0.41600
C3838       C  0.30849190  0.99398913  0.77540021     0.31800
C3839       C  0.28726596  0.01857586  0.74159146     0.00400
F3840       F  0.26266461  0.96357944  0.74346111    -0.13900
F3841       F  0.32458702  0.00405110  0.78543062    -0.14400
C3842       C  0.30440100  0.01044051  0.73097371     0.15300
C3843       C  0.30839650  0.02865991  0.72037107     0.24700
C3844       C  0.29485216  0.05532664  0.72001531    -0.41500
C3845       C  0.27647637  0.06286010  0.73038620     0.31700
C3846       C  0.27299644  0.04473418  0.74115851     0.13400
F3847       F  0.31900582  0.98563265  0.73133569    -0.13900
F3848       F  0.26371985  0.08866352  0.73064407    -0.14400
F3849       F  0.32671238  0.02069660  0.71074323    -0.16700
F3850       F  0.25680944  0.05327862  0.75146798    -0.15300
F3851       F  0.31519016  0.03761572  0.76435063    -0.15300
F3852       F  0.27311193  0.92899334  0.76432044    -0.16700
C3853       C  0.54695790  0.27081814  0.71698490     0.13400
C3854       C  0.52150796  0.27545205  0.70994478     0.00300
C3855       C  0.52083529  0.29798964  0.70098893     0.15300
C3856       C  0.54500412  0.31459747  0.69867748     0.24700
C3857       C  0.57103848  0.30948025  0.70530166    -0.41600
C3858       C  0.57125718  0.28780998  0.71483222     0.31800
C3859       C  0.49651406  0.25555875  0.71083538     0.00400
F3860       F  0.49705654  0.30298704  0.69381398    -0.13900
F3861       F  0.59533503  0.28208077  0.72163686    -0.14400
C3862       C  0.46907929  0.26528737  0.71425514     0.15300
C3863       C  0.44515713  0.24747358  0.71310066     0.24700
C3864       C  0.44787040  0.21968580  0.70820573    -0.41500
C3865       C  0.47545689  0.20962957  0.70533800     0.31700
C3866       C  0.49937031  0.22718612  0.70675634     0.13400
F3867       F  0.46523424  0.29245776  0.71825190    -0.13900
F3868       F  0.47919302  0.18298978  0.70058083    -0.14400
F3869       F  0.41901938  0.25815881  0.71575486    -0.16700
F3870       F  0.52521287  0.21698660  0.70321355    -0.15300
F3871       F  0.54849676  0.24934615  0.72577257    -0.15300
F3872       F  0.54289770  0.33541834  0.68956691    -0.16700
C3873       C  0.42013224  0.29453832  0.64703845     0.13400
C3874       C  0.40239218  0.31833714  0.64811568     0.00300
C3875       C  0.38152024  0.31939441  0.65785275     0.15300
C3876       C  0.37619159  0.29552246  0.66541022     0.24700
C3877       C  0.39113107  0.27012669  0.66296015    -0.41600
C3878       C  0.41429866  0.27029648  0.65428573     0.31800
C3879       C  0.39998900  0.33734032  0.63686807     0.00400
F3880       F  0.36408101  0.34222414  0.65892875    -0.13900
F3881       F  0.42908160  0.24624064  0.65162196    -0.14400
C3882       C  0.38829969  0.32645129  0.62523340     0.15300
C3883       C  0.38613703  0.34334693  0.61417860     0.24700
C3884       C  0.39555012  0.37138871  0.61461074    -0.41500
C3885       C  0.40655963  0.38269302  0.62634276     0.31700
C3886       C  0.40855751  0.36568137  0.63753087     0.13400
F3887       F  0.37915220  0.29925086  0.62459623    -0.13900
F3888       F  0.41675756  0.40951233  0.62672152    -0.14400
F3889       F  0.37510728  0.33225768  0.60296683    -0.16700
F3890       F  0.41955611  0.37644437  0.64880982    -0.15300
F3891       F  0.44077921  0.29365341  0.63775663    -0.15300
F3892       F  0.35472962  0.29652781  0.67428756    -0.16700
C3893       C  0.49044323  0.17495835  0.60370197     0.13400
C3894       C  0.46456209  0.16253405  0.60008201     0.00300
C3895       C  0.46281186  0.14681283  0.58841109     0.15300
C3896       C  0.48739843  0.14019711  0.58143691     0.24700
C3897       C  0.51391902  0.14964619  0.58599658    -0.41600
C3898       C  0.51501764  0.16874067  0.59660853     0.31800
C3899       C  0.44156343  0.16077804  0.60978243     0.00400
F3900       F  0.43758612  0.13603095  0.58440083    -0.13900
F3901       F  0.54016816  0.17912684  0.60091969    -0.14400
C3902       C  0.42869993  0.18530493  0.61484664     0.15300
C3903       C  0.41068701  0.18343278  0.62567532     0.24700
C3904       C  0.40496566  0.15700121  0.63129680    -0.41500
C3905       C  0.41642010  0.13232660  0.62577744     0.31700
C3906       C  0.43493696  0.13421982  0.61516983     0.13400
F3907       F  0.43428183  0.21100847  0.60956107    -0.13900
F3908       F  0.41129588  0.10668312  0.63125301    -0.14400
F3909       F  0.39929724  0.20739179  0.63089769    -0.16700
F3910       F  0.44794913  0.11033813  0.61073338    -0.15300
F3911       F  0.49247731  0.19068586  0.61485479    -0.15300
F3912       F  0.48548225  0.12333407  0.57064361    -0.16700
C3913       C  0.02186647  0.01858841  0.51673870     0.13400
C3914       C  0.02192161  0.01438373  0.50298421     0.00300
C3915       C  0.04734986  0.00530966  0.49702486     0.15300
C3916       C  0.07156687  0.99949359  0.50460586     0.24700
C3917       C  0.07127566  0.00290439  0.51836136    -0.41600
C3918       C  0.04621535  0.01286696  0.52432349     0.31800
C3919       C  0.99584190  0.01988516  0.49481228     0.00400
F3920       F  0.04882117  0.00202955  0.48379016    -0.13900
F3921       F  0.04457778  0.01501561  0.53760483    -0.14400
C3922       C  0.98164273  0.04600234  0.49565550     0.15300
C3923       C  0.95831886  0.05203492  0.48755591     0.24700
C3924       C  0.94880977  0.03247019  0.47790647    -0.41500
C3925       C  0.96252528  0.00589204  0.47735863     0.31700
C3926       C  0.98545483  0.99958710  0.48580271     0.13400
F3927       F  0.99119227  0.06646452  0.50393437    -0.13900
F3928       F  0.95441470  0.98620477  0.46838862    -0.14400
F3929       F  0.94579595  0.07777688  0.48894986    -0.16700
F3930       F  0.99766586  0.97356785  0.48509903    -0.15300
F3931       F  0.99779401  0.02696131  0.52295810    -0.15300
F3932       F  0.09528963  0.98978052  0.49850095    -0.16700
C3933       C  0.26761710  0.97704567  0.51119050     0.13400
C3934       C  0.25933444  0.99650430  0.50155274     0.00300
C3935       C  0.23459343  0.01266407  0.50352174     0.15300
C3936       C  0.21766608  0.00838668  0.51471915     0.24700
C3937       C  0.22503425  0.98748769  0.52401336    -0.41600
C3938       C  0.25084903  0.97264201  0.52228384     0.31800
C3939       C  0.27582367  0.99783055  0.48915023     0.00400
F3940       F  0.22645335  0.03200860  0.49443212    -0.13900
F3941       F  0.25952224  0.95291872  0.53110148    -0.14400
C3942       C  0.26484333  0.98562942  0.47761209     0.15300
C3943       C  0.28259709  0.98025724  0.46683504     0.24700
C3944       C  0.31135175  0.98816774  0.46719194    -0.41500
C3945       C  0.32178659  0.00214101  0.47842776     0.31700
C3946       C  0.30429305  0.00649189  0.48937709     0.13400
F3947       F  0.23747794  0.97686175  0.47717080    -0.13900
F3948       F  0.34963140  0.00909991  0.47931186    -0.14400
F3949       F  0.27204279  0.96605951  0.45629951    -0.16700
F3950       F  0.31561545  0.01748226  0.50054277    -0.15300
F3951       F  0.29131939  0.96103201  0.50947985    -0.15300
F3952       F  0.19331237  0.02352525  0.51603101    -0.16700
C3953       C  0.12891139  0.82083142  0.65916884     0.13400
C3954       C  0.11715890  0.81958756  0.64650001     0.00300
C3955       C  0.10765127  0.79352245  0.64149580     0.15300
C3956       C  0.11217556  0.76875453  0.64853051     0.24700
C3957       C  0.12745151  0.76957865  0.66037581    -0.41600
C3958       C  0.13420355  0.79586123  0.66606431     0.31800
C3959       C  0.11948484  0.84372791  0.63746480     0.00400
F3960       F  0.09703291  0.79152796  0.62911848    -0.13900
F3961       F  0.14731634  0.79719724  0.67793076    -0.14400
C3962       C  0.14656249  0.85387183  0.63411694     0.15300
C3963       C  0.15009573  0.87066451  0.62299190     0.24700
C3964       C  0.12665105  0.87721005  0.61509305    -0.41500
C3965       C  0.09935814  0.86903445  0.61901998     0.31700
C3966       C  0.09575610  0.85256152  0.63020876     0.13400
F3967       F  0.16990245  0.84529401  0.64085831    -0.13900
F3968       F  0.07632445  0.87615762  0.61171375    -0.14400
F3969       F  0.17662234  0.87832864  0.61929283    -0.16700
F3970       F  0.06936708  0.84358803  0.63345960    -0.15300
F3971       F  0.13720641  0.84595811  0.66438408    -0.15300
F3972       F  0.10457056  0.74372412  0.64297333    -0.16700
C3973       C  0.05154067  0.77970719  0.54081649     0.13400
C3974       C  0.02436814  0.78319428  0.53532145     0.00300
C3975       C  0.01610670  0.81063615  0.53136124     0.15300
C3976       C  0.03405006  0.83409013  0.53340049     0.24700
C3977       C  0.06099164  0.83063156  0.53920249    -0.41600
C3978       C  0.06960751  0.80297500  0.54265152     0.31800
C3979       C  0.00372017  0.75896631  0.53537215     0.00400
F3980       F  0.99018466  0.81489777  0.52589387    -0.13900
F3981       F  0.09536910  0.79849967  0.54825142    -0.14400
C3982       C  0.97829932  0.76145826  0.54248329     0.15300
C3983       C  0.96097295  0.73785929  0.54461437     0.24700
C3984       C  0.96823212  0.71086765  0.53953975    -0.41500
C3985       C  0.99246692  0.70883793  0.53147437     0.31700
C3986       C  0.01023831  0.73249088  0.52958851     0.13400
F3987       F  0.97110359  0.78646959  0.54820779    -0.13900
F3988       F  0.99997145  0.68360253  0.52606839    -0.14400
F3989       F  0.93746266  0.74137339  0.55214335    -0.16700
F3990       F  0.03430681  0.72928267  0.52242816    -0.15300
F3991       F  0.05997708  0.75394679  0.54524352    -0.15300
F3992       F  0.02420076  0.86040194  0.53057115    -0.16700
C3993       C  0.96585757  0.88737949  0.62126612     0.13400
C3994       C  0.95374088  0.87331909  0.61045688     0.00300
C3995       C  0.92460627  0.86769990  0.61026463     0.15300
C3996       C  0.90795880  0.87482593  0.62112354     0.24700
C3997       C  0.92043140  0.88776257  0.63216268    -0.41600
C3998       C  0.94928798  0.89452767  0.63206295     0.31800
C3999       C  0.97132189  0.86871027  0.59881631     0.00400
F4000       F  0.91246359  0.85527713  0.59962174    -0.13900
F4001       F  0.96128352  0.90825294  0.64240210    -0.14400
C4002       C  0.99553974  0.85141031  0.59965483     0.15300
C4003       C  0.01873219  0.85672243  0.59154937     0.24700
C4004       C  0.01787545  0.88000392  0.58300522    -0.41500
C4005       C  0.99183401  0.89364610  0.58057887     0.31700
C4006       C  0.96856334  0.88793302  0.58847644     0.13400
F4007       F  0.99797296  0.83189708  0.60935139    -0.13900
F4008       F  0.98972583  0.91450717  0.57148555    -0.14400
F4009       F  0.04292331  0.84147832  0.59322594    -0.16700
F4010       F  0.94487052  0.90415489  0.58731333    -0.15300
F4011       F  0.99362157  0.89492422  0.62116057    -0.15300
F4012       F  0.88000769  0.86803844  0.62109926    -0.16700
C4013       C  0.22711704  0.05830815  0.63766062     0.13400
C4014       C  0.21312683  0.07712787  0.62905628     0.00300
C4015       C  0.21101299  0.10572916  0.63298455     0.15300
C4016       C  0.22415649  0.11549158  0.64466694     0.24700
C4017       C  0.23969470  0.09702564  0.65285325    -0.41600
C4018       C  0.24038842  0.06810784  0.64927971     0.31800
C4019       C  0.20239034  0.06696819  0.61577922     0.00400
F4020       F  0.19794677  0.12471471  0.62503088    -0.13900
F4021       F  0.25557905  0.04951293  0.65662014    -0.14400
C4022       C  0.17331744  0.06757025  0.61245842     0.15300
C4023       C  0.16329369  0.05457301  0.60075812     0.24700
C4024       C  0.18209778  0.04098299  0.59191502    -0.41500
C4025       C  0.21127185  0.04203995  0.59490756     0.31700
C4026       C  0.22125454  0.05490789  0.60655812     0.13400
F4027       F  0.15432204  0.07886870  0.62102585    -0.13900
F4028       F  0.23006645  0.02836376  0.58701101    -0.14400
F4029       F  0.13490439  0.05302996  0.59869061    -0.16700
F4030       F  0.24950781  0.05451428  0.60909736    -0.15300
F4031       F  0.22877272  0.03037640  0.63456057    -0.15300
F4032       F  0.22385849  0.14362560  0.64738754    -0.16700
loop_ 
_geom_bond_atom_site_label_1 
_geom_bond_atom_site_label_2 
_geom_bond_distance 
_geom_bond_site_symmetry_2 
_ccdc_geom_bond_type 
Zr1           O2   2.438   1_565  S
Zr1           O3   2.472       .  S
Zr1           O4   2.555   1_565  S
Zr1           O7   2.509   1_565  S
Zr1           O9   2.391       .  S
Zr1          O10   2.416       .  S
Zr1          O11   2.411       .  S
Zr1          O12   2.408       .  S
O2           H58   0.990       .  S
O2           H66   0.990       .  S
O3           C23   1.291       .  A
O4           C25   1.307       .  A
O5          Zr15   2.414       .  S
O5           C24   1.277       .  A
O6          Zr14   2.389       .  S
O6           C25   1.275   1_565  A
O7           C24   1.299   1_545  A
O8          Zr16   2.413       .  S
O8           C23   1.281       .  A
O9          Zr14   2.398       .  S
O9          Zr16   2.381       .  S
O10         Zr15   2.405       .  S
O10         Zr16   2.378       .  S
O10          H45   0.965       .  S
O11         Zr14   2.402       .  S
O11         Zr31   2.396       .  S
O11          H48   0.965       .  S
O12         Zr15   2.413       .  S
O12         Zr31   2.369       .  S
Zr13         O38   2.437       .  S
Zr13         O32   2.417       .  S
Zr13         O40   2.414       .  S
Zr13         O28   2.414       .  S
Zr13         O19   2.397       .  S
Zr13         O20   2.402       .  S
Zr13         O21   2.374       .  S
Zr13         O22   2.373       .  S
Zr14         O33   2.443       .  S
Zr14         O26   2.435       .  S
Zr14         O27   2.424       .  S
Zr14         O20   2.390       .  S
Zr14         O21   2.376       .  S
Zr15         O17   2.435       .  S
Zr15         O39   2.435       .  S
Zr15         O41   2.495       .  S
Zr15         O19   2.387       .  S
Zr15         O22   2.353       .  S
Zr16         O42   2.436       .  S
Zr16         O43   2.436       .  S
Zr16         O18   2.438       .  S
Zr16         O19   2.406       .  S
Zr16         O20   2.401       .  S
O17          H54   0.990       .  S
O18          H49   0.990       .  S
O18          H63   0.990       .  S
O20          H46   0.966       .  S
O21         Zr31   2.363       .  S
O22         Zr31   2.374       .  S
O22          H47   0.963       .  S
C23        C3937   1.495       .  S
C24        C3917   1.492   1_565  S
C25        C4024   1.505       .  S
O26          H62   0.990       .  S
O27          C29   1.282       .  A
O28          C29   1.282       .  A
C29        C3964   1.462       .  S
O30         Zr31   2.435   1_545  S
O30          H59   0.990       .  S
Zr31         O34   2.436       .  S
Zr31         O35   2.435       .  S
Zr31         O36   2.419       .  S
O32          C37   1.282       .  A
O33          H50   0.990       .  S
O33          H65   0.990       .  S
O34          H51   0.990       .  S
O35          H55   0.990       .  S
O35          H64   0.990       .  S
O36          C37   1.285       .  A
C37        C4004   1.467       .  S
O38          H57   0.990       .  S
O38          H61   0.990       .  S
O39          H53   0.990       .  S
O39          H60   0.990       .  S
O40          C44   1.282       .  A
O41          C44   1.296       .  A
O42          H52   0.990       .  S
O43          H56   0.990       .  S
C44        C3977   1.502       .  S
Zr67         O68   2.439       .  S
Zr67         O69   2.462       .  S
Zr67         O70   2.555       .  S
Zr67         O73   2.498       .  S
Zr67         O75   2.382       .  S
Zr67         O76   2.419       .  S
Zr67         O77   2.410       .  S
Zr67         O78   2.405       .  S
O68         H124   0.990       .  S
O68         H132   0.990       .  S
O69          C89   1.289       .  A
O70          C91   1.307       .  A
O71         Zr81   2.430       .  S
O71          C90   1.281       .  A
O72         Zr80   2.387       .  S
O72          C91   1.274       .  A
O73          C90   1.298       .  A
O74         Zr82   2.415       .  S
O74          C89   1.281       .  A
O75         Zr80   2.393       .  S
O75         Zr82   2.378       .  S
O76         Zr81   2.400       .  S
O76         Zr82   2.377       .  S
O76         H111   0.965       .  S
O77         Zr80   2.405       .  S
O77         Zr97   2.406       .  S
O77         H114   0.966       .  S
O78         Zr81   2.413       .  S
O78         Zr97   2.357       .  S
Zr79        O104   2.440       .  S
Zr79         O98   2.426       .  S
Zr79        O106   2.413       .  S
Zr79         O94   2.411       .  S
Zr79         O85   2.397       .  S
Zr79         O86   2.401       .  S
Zr79         O87   2.377       .  S
Zr79         O88   2.378       .  S
Zr80         O99   2.439       .  S
Zr80         O92   2.433       .  S
Zr80         O93   2.417       .  S
Zr80         O86   2.385       .  S
Zr80         O87   2.379       .  S
Zr81         O83   2.435       .  S
Zr81        O105   2.436       .  S
Zr81        O107   2.509       .  S
Zr81         O85   2.379       .  S
Zr81         O88   2.368       .  S
Zr82        O108   2.436       .  S
Zr82        O109   2.434       .  S
Zr82         O84   2.438       .  S
Zr82         O85   2.405       .  S
Zr82         O86   2.401       .  S
O83         H120   0.990       .  S
O84         H115   0.990       .  S
O84         H129   0.989       .  S
O86         H112   0.966       .  S
O87         Zr97   2.368       .  S
O88         Zr97   2.383       .  S
O88         H113   0.966       .  S
C89        C3844   1.486       .  S
C90        C3817   1.490       .  S
C91        C4017   1.506       .  S
O92         H128   0.990       .  S
O93          C95   1.281       .  A
O94          C95   1.280       .  A
C95        C3904   1.456       .  S
O96         Zr97   2.435       .  S
O96         H125   0.990       .  S
Zr97        O100   2.435       .  S
Zr97        O101   2.439       .  S
Zr97        O102   2.405       .  S
O98         C103   1.283       .  A
O99         H116   0.990       .  S
O99         H131   0.990       .  S
O100        H117   0.990       .  S
O101        H121   0.989       .  S
O101        H130   0.990       .  S
O102        C103   1.280       .  A
C103       C3877   1.470       .  S
O104        H123   0.990       .  S
O104        H127   0.990       .  S
O105        H119   0.990       .  S
O105        H126   0.990       .  S
O106        C110   1.280       .  A
O107        C110   1.299       .  A
O108        H118   0.990       .  S
O109        H122   0.990       .  S
C110       C3864   1.505       .  S
Zr133       O134   2.438       .  S
Zr133       O135   2.456       .  S
Zr133       O136   2.495       .  S
Zr133       O139   2.550       .  S
Zr133       O141   2.408       .  S
Zr133       O142   2.395       .  S
Zr133       O143   2.443       .  S
Zr133       O144   2.406       .  S
O134        H190   0.990       .  S
O134        H198   0.990       .  S
O135        C155   1.288       .  A
O136        C157   1.292       .  A
O137       Zr147   2.372       .  S
O137        C156   1.273       .  A
O138       Zr146   2.411       .  S
O138        C157   1.273       .  A
O139        C156   1.308       .  A
O140       Zr148   2.431       .  S
O140        C155   1.284       .  A
O141       Zr146   2.415       .  S
O141       Zr148   2.365       .  S
O142       Zr147   2.403       .  S
O142       Zr148   2.378       .  S
O142        H177   0.965       .  S
O143       Zr146   2.431       .  S
O143       Zr163   2.369       .  S
O143        H180   0.964       .  S
O144       Zr147   2.400       .  S
O144       Zr163   2.391       .  S
Zr145       O170   2.442       .  S
Zr145       O164   2.418       .  S
Zr145       O172   2.406       .  S
Zr145       O160   2.404       .  S
Zr145       O151   2.394       .  S
Zr145       O152   2.393       .  S
Zr145       O153   2.366       .  S
Zr145       O154   2.377       .  S
Zr146       O165   2.436       .  S
Zr146       O158   2.436       .  S
Zr146       O159   2.505       .  S
Zr146       O152   2.386       .  S
Zr146       O153   2.361       .  S
Zr147       O149   2.436       .  S
Zr147       O171   2.436       .  S
Zr147       O173   2.424       .  S
Zr147       O151   2.379       .  S
Zr147       O154   2.377       .  S
Zr148       O174   2.438       .  S
Zr148       O175   2.434       .  S
Zr148       O150   2.437       .  S
Zr148       O151   2.398       .  S
Zr148       O152   2.407       .  S
O149        H186   0.990       .  S
O150        H181   0.990       .  S
O150        H195   0.990       .  S
O152        H178   0.966       .  S
O153       Zr163   2.375       .  S
O154       Zr163   2.365       .  S
O154        H179   0.965       .  S
C155       C3744   1.494       .  S
C156       C3797   1.507       .  S
C157       C3724   1.505       .  S
O158        H194   0.990       .  S
O159        C161   1.297       .  A
O160        C161   1.279       .  A
C161       C3757   1.504       .  S
O162       Zr163   2.435       .  S
O162        H191   0.990       .  S
Zr163       O166   2.437       .  S
Zr163       O167   2.439       .  S
Zr163       O168   2.410       .  S
O164        C169   1.282       .  A
O165        H182   0.990       .  S
O165        H197   0.990       .  S
O166        H183   0.990       .  S
O167        H187   0.990       .  S
O167        H196   0.990       .  S
O168        C169   1.281       .  A
C169       C3777   1.477       .  S
O170        H189   0.990       .  S
O170        H193   0.990       .  S
O171        H185   0.990       .  S
O171        H192   0.990       .  S
O172        C176   1.280       .  A
O173        C176   1.282       .  A
O174        H184   0.990       .  S
O175        H188   0.990       .  S
C176       C3884   1.456       .  S
Zr199       O200   2.437       .  S
Zr199       O201   2.469       .  S
Zr199       O202   2.492       .  S
Zr199       O205   2.553       .  S
Zr199       O207   2.400       .  S
Zr199       O208   2.389       .  S
Zr199       O209   2.446       .  S
Zr199       O210   2.417       .  S
O200        H256   0.990       .  S
O200        H264   0.990       .  S
O201        C221   1.291       .  A
O202        C223   1.297       .  A
O203       Zr213   2.364       .  S
O203        C222   1.270       .  A
O204       Zr212   2.426       .  S
O204        C223   1.283       .  A
O205        C222   1.308       .  A
O206       Zr214   2.420       .  S
O206        C221   1.282       .  A
O207       Zr212   2.408       .  S
O207       Zr214   2.368       .  S
O208       Zr213   2.396       .  S
O208       Zr214   2.380       .  S
O208        H243   0.965       .  S
O209       Zr212   2.419       .  S
O209       Zr229   2.364       .  S
O209        H246   0.963       .  S
O210       Zr213   2.401       .  S
O210       Zr229   2.408       .  S
Zr211       O236   2.438       .  S
Zr211       O230   2.401       .  S
Zr211       O238   2.417       .  S
Zr211       O226   2.412       .  S
Zr211       O217   2.394       .  S
Zr211       O218   2.396       .  S
Zr211       O219   2.376       .  S
Zr211       O220   2.380       .  S
Zr212       O231   2.438       .  S
Zr212       O224   2.436       .  S
Zr212       O225   2.491       .  S
Zr212       O218   2.391       .  S
Zr212       O219   2.370       .  S
Zr213       O215   2.439       .  S
Zr213       O237   2.435       .  S
Zr213       O239   2.411       .  S
Zr213       O217   2.376       .  S
Zr213       O220   2.378       .  S
Zr214       O240   2.438       .  S
Zr214       O241   2.435       .  S
Zr214       O216   2.435       .  S
Zr214       O217   2.404       .  S
Zr214       O218   2.400       .  S
O215        H252   0.991       .  S
O216        H247   0.990       .  S
O216        H261   0.990       .  S
O218        H244   0.966       .  S
O219       Zr229   2.371       .  S
O220       Zr229   2.357       .  S
O220        H245   0.965       .  S
C221       C3657   1.500       .  S
C222       C3804   1.504       .  S
C223       C3644   1.504       .  S
O224        H260   0.990       .  S
O225        C227   1.295       .  A
O226        C227   1.281       .  A
C227       C3677   1.509       .  S
O228       Zr229   2.434       .  S
O228        H257   0.990       .  S
Zr229       O232   2.437       .  S
Zr229       O233   2.439       .  S
Zr229       O234   2.432       .  S
O230        C235   1.279       .  A
O231        H248   0.990       .  S
O231        H263   0.990       .  S
O232        H249   0.990       .  S
O233        H253   0.990       .  S
O233        H262   0.990       .  S
O234        C235   1.284       .  A
C235       C3957   1.467       .  S
O236        H255   0.990       .  S
O236        H259   0.990       .  S
O237        H251   0.990       .  S
O237        H258   0.990       .  S
O238        C242   1.281       .  A
O239        C242   1.278       .  A
O240        H250   0.990       .  S
O241        H254   0.990       .  S
C242       C3697   1.449       .  S
Zr265       O266   2.439   1_545  S
Zr265       O267   2.462       .  S
Zr265       O268   2.485       .  S
Zr265       O271   2.553       .  S
Zr265       O273   2.409       .  S
Zr265       O274   2.389       .  S
Zr265       O275   2.451       .  S
Zr265       O276   2.411       .  S
O266        H322   0.990       .  S
O266        H330   0.990       .  S
O267        C287   1.289       .  A
O268        C289   1.292       .  A
O269       Zr279   2.378       .  S
O269        C288   1.273       .  A
O270       Zr278   2.430       .  S
O270        C289   1.280       .  A
O271        C288   1.308       .  A
O272       Zr280   2.432       .  S
O272        C287   1.284       .  A
O273       Zr278   2.414       .  S
O273       Zr280   2.370       .  S
O274       Zr279   2.397       .  S
O274       Zr280   2.378       .  S
O274        H309   0.965       .  S
O275       Zr278   2.424       .  S
O275       Zr295   2.367       .  S
O275        H312   0.964       .  S
O276       Zr279   2.406       .  S
O276       Zr295   2.406       .  S
Zr277       O302   2.437       .  S
Zr277       O296   2.420       .  S
Zr277       O304   2.425       .  S
Zr277       O292   2.409       .  S
Zr277       O283   2.397       .  S
Zr277       O284   2.405       .  S
Zr277       O285   2.377       .  S
Zr277       O286   2.376       .  S
Zr278       O297   2.435       .  S
Zr278       O290   2.434       .  S
Zr278       O291   2.511       .  S
Zr278       O284   2.385       .  S
Zr278       O285   2.370       .  S
Zr279       O281   2.437       .  S
Zr279       O303   2.436       .  S
Zr279       O305   2.419       .  S
Zr279       O283   2.375       .  S
Zr279       O286   2.379       .  S
Zr280       O306   2.436       .  S
Zr280       O307   2.435       .  S
Zr280       O282   2.436       .  S
Zr280       O283   2.403       .  S
Zr280       O284   2.403       .  S
O281        H318   0.991       .  S
O282        H313   0.990       .  S
O282        H327   0.990       .  S
O284        H310   0.966       .  S
O285       Zr295   2.376       .  S
O286       Zr295   2.351       .  S
O286        H311   0.965       .  S
C287       C3577   1.498       .  S
C288       C3617   1.504   1_545  S
C289       C3557   1.504       .  S
O290        H326   0.989       .  S
O291        C293   1.300       .  A
O292        C293   1.281       .  A
C293       C3764   1.510       .  S
O294       Zr295   2.436       .  S
O294        H323   0.990       .  S
Zr295       O298   2.436       .  S
Zr295       O299   2.437       .  S
Zr295       O300   2.420       .  S
O296        C301   1.282       .  A
O297        H314   0.990       .  S
O297        H329   0.990       .  S
O298        H315   0.990       .  S
O299        H319   0.990       .  S
O299        H328   0.990       .  S
O300        C301   1.283       .  A
C301       C3897   1.472       .  S
O302        H321   0.990       .  S
O302        H325   0.990       .  S
O303        H317   0.990       .  S
O303        H324   0.990       .  S
O304        C308   1.284       .  A
O305        C308   1.280       .  A
O306        H316   0.990       .  S
O307        H320   0.990       .  S
C308       C3604   1.457       .  S
Zr331       O332   2.439       .  S
Zr331       O333   2.463       .  S
Zr331       O334   2.477       .  S
Zr331       O337   2.525       .  S
Zr331       O339   2.404       .  S
Zr331       O340   2.392       .  S
Zr331       O341   2.444       .  S
Zr331       O342   2.413       .  S
O332        H388   0.990       .  S
O332        H396   0.990       .  S
O333        C353   1.289       .  A
O334        C355   1.291       .  A
O335       Zr345   2.394       .  S
O335        C354   1.276       .  A
O336       Zr344   2.422       .  S
O336        C355   1.277       .  A
O337        C354   1.302       .  A
O338       Zr346   2.398       .  S
O338        C353   1.278       .  A
O339       Zr344   2.412       .  S
O339       Zr346   2.378       .  S
O340       Zr345   2.395       .  S
O340       Zr346   2.383       .  S
O340        H375   0.965       .  S
O341       Zr344   2.424       .  S
O341       Zr361   2.372       .  S
O341        H378   0.964       .  S
O342       Zr345   2.400       .  S
O342       Zr361   2.403       .  S
Zr343       O368   2.437       .  S
Zr343       O362   2.405       .  S
Zr343       O370   2.408       .  S
Zr343       O358   2.414       .  S
Zr343       O349   2.392       .  S
Zr343       O350   2.391       .  S
Zr343       O351   2.370       .  S
Zr343       O352   2.387       .  S
Zr344       O363   2.437       .  S
Zr344       O356   2.435       .  S
Zr344       O357   2.496       .  S
Zr344       O350   2.391       .  S
Zr344       O351   2.364       .  S
Zr345       O347   2.437       .  S
Zr345       O369   2.436       .  S
Zr345       O371   2.424       .  S
Zr345       O349   2.385       .  S
Zr345       O352   2.385       .  S
Zr346       O372   2.437       .  S
Zr346       O373   2.434       .  S
Zr346       O348   2.438       .  S
Zr346       O349   2.388       .  S
Zr346       O350   2.396       .  S
O347        H384   0.991       .  S
O348        H379   0.990       .  S
O348        H393   0.990       .  S
O350        H376   0.967       .  S
O351       Zr361   2.369       .  S
O352       Zr361   2.354       .  S
O352        H377   0.964       .  S
C353       C3517   1.486       .  S
C354       C3624   1.501       .  S
C355       C3497   1.482       .  S
O356        H392   0.990       .  S
O357        C359   1.296       .  A
O358        C359   1.282       .  A
C359       C3684   1.502       .  S
O360       Zr361   2.435       .  S
O360        H389   0.990       .  S
Zr361       O364   2.436       .  S
Zr361       O365   2.440       .  S
Zr361       O366   2.425       .  S
O362        C367   1.279       .  A
O363        H380   0.990       .  S
O363        H395   0.990       .  S
O364        H381   0.990       .  S
O365        H385   0.990       .  S
O365        H394   0.990       .  S
O366        C367   1.283       .  A
C367       C3537   1.461       .  S
O368        H387   0.990       .  S
O368        H391   0.990       .  S
O369        H383   0.990       .  S
O369        H390   0.990       .  S
O370        C374   1.281       .  A
O371        C374   1.282       .  A
O372        H382   0.990       .  S
O373        H386   0.989       .  S
C374       C3997   1.457       .  S
Zr397       O398   2.438       .  S
Zr397       O399   2.462       .  S
Zr397       O400   2.554       .  S
Zr397       O403   2.488       .  S
Zr397       O405   2.385       .  S
Zr397       O406   2.420       .  S
Zr397       O407   2.412       .  S
Zr397       O408   2.411       .  S
O398        H454   0.990       .  S
O398        H462   0.990       .  S
O399        C419   1.289       .  A
O400        C421   1.307       .  A
O401       Zr411   2.428       .  S
O401        C420   1.282       .  A
O402       Zr410   2.390       .  S
O402        C421   1.275       .  A
O403        C420   1.295       .  A
O404       Zr412   2.433       .  S
O404        C419   1.285       .  A
O405       Zr410   2.399       .  S
O405       Zr412   2.381       .  S
O406       Zr411   2.395       .  S
O406       Zr412   2.378       .  S
O406        H441   0.965       .  S
O407       Zr410   2.402       .  S
O407       Zr427   2.414       .  S
O407        H444   0.965       .  S
O408       Zr411   2.409       .  S
O408       Zr427   2.367       .  S
Zr409       O434   2.437       .  S
Zr409       O428   2.421       .  S
Zr409       O436   2.409       .  S
Zr409       O424   2.409       .  S
Zr409       O415   2.401       .  S
Zr409       O416   2.402       .  S
Zr409       O417   2.369       .  S
Zr409       O418   2.379       .  S
Zr410       O429   2.439       .  S
Zr410       O422   2.434       .  S
Zr410       O423   2.418       .  S
Zr410       O416   2.387       .  S
Zr410       O417   2.375       .  S
Zr411       O413   2.437       .  S
Zr411       O435   2.434       .  S
Zr411       O437   2.498       .  S
Zr411       O415   2.381       .  S
Zr411       O418   2.356       .  S
Zr412       O438   2.434       .  S
Zr412       O439   2.438       .  S
Zr412       O414   2.437       .  S
Zr412       O415   2.404       .  S
Zr412       O416   2.406       .  S
O413        H450   0.990       .  S
O414        H445   0.990       .  S
O414        H459   0.990       .  S
O416        H442   0.966       .  S
O417       Zr427   2.357       .  S
O418       Zr427   2.382       .  S
O418        H443   0.965       .  S
C419       C3457   1.493       .  S
C420       C3437   1.487       .  S
C421       C3477   1.511       .  S
O422        H458   0.990       .  S
O423        C425   1.281       .  A
O424        C425   1.281       .  A
C425       C3544   1.459       .  S
O426       Zr427   2.436       .  S
O426        H455   0.990       .  S
Zr427       O430   2.436       .  S
Zr427       O431   2.437   1_655  S
Zr427       O432   2.426       .  S
O428        C433   1.282       .  A
O429        H446   0.990       .  S
O429        H461   0.990       .  S
O430        H447   0.990       .  S
O431        H451   0.990       .  S
O431        H460   0.990       .  S
O432        C433   1.285       .  A
C433       C3704   1.466   1_655  S
O434        H453   0.990       .  S
O434        H457   0.990       .  S
O435        H449   0.990       .  S
O435        H456   0.990       .  S
O436        C440   1.281       .  A
O437        C440   1.296       .  A
O438        H448   0.989       .  S
O439        H452   0.990       .  S
C440       C3984   1.506       .  S
Zr463       O464   2.438       .  S
Zr463       O465   2.434       .  S
Zr463       O466   2.552       .  S
Zr463       O469   2.473       .  S
Zr463       O471   2.372       .  S
Zr463       O472   2.422       .  S
Zr463       O473   2.404       .  S
Zr463       O474   2.409       .  S
O464        H520   0.990       .  S
O464        H528   0.990       .  S
O465        C485   1.284       .  A
O466        C487   1.307       .  A
O467       Zr477   2.436       .  S
O467        C486   1.283       .  A
O468       Zr476   2.402       .  S
O468        C487   1.277       .  A
O469        C486   1.294       .  A
O470       Zr478   2.440       .  S
O470        C485   1.286       .  A
O471       Zr476   2.398       .  S
O471       Zr478   2.382       .  S
O472       Zr477   2.409       .  S
O472       Zr478   2.377       .  S
O472        H507   0.965       .  S
O473       Zr476   2.402       .  S
O473       Zr493   2.414       .  S
O473        H510   0.966       .  S
O474       Zr477   2.416       .  S
O474       Zr493   2.358       .  S
Zr475       O500   2.437       .  S
Zr475       O494   2.413       .  S
Zr475       O502   2.407       .  S
Zr475       O490   2.400       .  S
Zr475       O481   2.390       .  S
Zr475       O482   2.398       .  S
Zr475       O483   2.369       .  S
Zr475       O484   2.375       .  S
Zr476       O495   2.441       .  S
Zr476       O488   2.435       .  S
Zr476       O489   2.434       .  S
Zr476       O482   2.395       .  S
Zr476       O483   2.371       .  S
Zr477       O479   2.437       .  S
Zr477       O501   2.436       .  S
Zr477       O503   2.528       .  S
Zr477       O481   2.383       .  S
Zr477       O484   2.360       .  S
Zr478       O504   2.436       .  S
Zr478       O505   2.437       .  S
Zr478       O480   2.438       .  S
Zr478       O481   2.403       .  S
Zr478       O482   2.413       .  S
O479        H516   0.990       .  S
O480        H511   0.990       .  S
O480        H525   0.990       .  S
O482        H508   0.966       .  S
O483       Zr493   2.357       .  S
O484       Zr493   2.382       .  S
O484        H509   0.965       .  S
C485       C3417   1.482       .  S
C486       C3404   1.481       .  S
C487       C3484   1.514       .  S
O488        H524   0.990       .  S
O489        C491   1.285       .  A
O490        C491   1.279       .  A
C491       C3784   1.484       .  S
O492       Zr493   2.436       .  S
O492        H521   0.990       .  S
Zr493       O496   2.436       .  S
Zr493       O497   2.437       .  S
Zr493       O498   2.415       .  S
O494        C499   1.281       .  A
O495        H512   0.990       .  S
O495        H527   0.990       .  S
O496        H513   0.990       .  S
O497        H517   0.990       .  S
O497        H526   0.990       .  S
O498        C499   1.283       .  A
C499       C3597   1.462       .  S
O500        H519   0.990       .  S
O500        H523   0.990       .  S
O501        H515   0.990       .  S
O501        H522   0.990       .  S
O502        C506   1.281       .  A
O503        C506   1.302       .  A
O504        H514   0.990       .  S
O505        H518   0.990       .  S
C506       C3857   1.521       .  S
Zr529       O530   2.438       .  S
Zr529       O531   2.466       .  S
Zr529       O532   2.542       .  S
Zr529       O535   2.478       .  S
Zr529       O537   2.384       .  S
Zr529       O538   2.416       .  S
Zr529       O539   2.415       .  S
Zr529       O540   2.411       .  S
O530        H586   0.990       .  S
O530        H594   0.990       .  S
O531        C551   1.289       .  A
O532        C553   1.304       .  A
O533       Zr543   2.430       .  S
O533        C552   1.283       .  A
O534       Zr542   2.390       .  S
O534        C553   1.274       .  A
O535        C552   1.294       .  A
O536       Zr544   2.423       .  S
O536        C551   1.283       .  A
O537       Zr542   2.394       .  S
O537       Zr544   2.386       .  S
O538       Zr543   2.396       .  S
O538       Zr544   2.381       .  S
O538        H573   0.965       .  S
O539       Zr542   2.400       .  S
O539       Zr559   2.405       .  S
O539        H576   0.965       .  S
O540       Zr543   2.406       .  S
O540       Zr559   2.363       .  S
Zr541       O566   2.438       .  S
Zr541       O560   2.415       .  S
Zr541       O568   2.410       .  S
Zr541       O556   2.398       .  S
Zr541       O547   2.395       .  S
Zr541       O548   2.405       .  S
Zr541       O549   2.382       .  S
Zr541       O550   2.374       .  S
Zr542       O561   2.442       .  S
Zr542       O554   2.434       .  S
Zr542       O555   2.418       .  S
Zr542       O548   2.390       .  S
Zr542       O549   2.380       .  S
Zr543       O545   2.435       .  S
Zr543       O567   2.435       .  S
Zr543       O569   2.503       .  S
Zr543       O547   2.381       .  S
Zr543       O550   2.360       .  S
Zr544       O570   2.436       .  S
Zr544       O571   2.437       .  S
Zr544       O546   2.438       .  S
Zr544       O547   2.410       .  S
Zr544       O548   2.406       .  S
O545        H582   0.990       .  S
O546        H577   0.990       .  S
O546        H591   0.990       .  S
O548        H574   0.967       .  S
O549       Zr559   2.362       .  S
O550       Zr559   2.382       .  S
O550        H575   0.965       .  S
C551       C3304   1.494       .  S
C552       C3277   1.474       .  S
C553       C3377   1.502       .  S
O554        H590   0.990       .  S
O555        C557   1.279       .  A
O556        C557   1.279       .  A
C557       C3344   1.468       .  S
O558       Zr559   2.439       .  S
O558        H587   0.990       .  S
Zr559       O562   2.438       .  S
Zr559       O563   2.436       .  S
Zr559       O564   2.412       .  S
O560        C565   1.281       .  A
O561        H578   0.990       .  S
O561        H593   0.990       .  S
O562        H579   0.990       .  S
O563        H583   0.990       .  S
O563        H592   0.990       .  S
O564        C565   1.281       .  A
C565       C3364   1.455       .  S
O566        H585   0.990       .  S
O566        H589   0.990       .  S
O567        H581   0.990       .  S
O567        H588   0.990       .  S
O568        C572   1.280       .  A
O569        C572   1.297       .  A
O570        H580   0.990       .  S
O571        H584   0.990       .  S
C572       C3324   1.504       .  S
Zr595       O596   2.436       .  S
Zr595       O597   2.459       .  S
Zr595       O598   2.539       .  S
Zr595       O601   2.495       .  S
Zr595       O603   2.393       .  S
Zr595       O604   2.416       .  S
Zr595       O605   2.410       .  S
Zr595       O606   2.404       .  S
O596        H652   0.990       .  S
O596        H660   0.990       .  S
O597        C617   1.289       .  A
O598        C619   1.304       .  A
O599       Zr609   2.421       .  S
O599        C618   1.278       .  A
O600       Zr608   2.400       .  S
O600        C619   1.278       .  A
O601        C618   1.296       .  A
O602       Zr610   2.423       .  S
O602        C617   1.282       .  A
O603       Zr608   2.399       .  S
O603       Zr610   2.388       .  S
O604       Zr609   2.402       .  S
O604       Zr610   2.378       .  S
O604        H639   0.965       .  S
O605       Zr608   2.398       .  S
O605       Zr625   2.393       .  S
O605        H642   0.966       .  S
O606       Zr609   2.410       .  S
O606       Zr625   2.364       .  S
Zr607       O632   2.438       .  S
Zr607       O626   2.413       .  S
Zr607       O634   2.413       .  S
Zr607       O622   2.396       .  S
Zr607       O613   2.390       .  S
Zr607       O614   2.400       .  S
Zr607       O615   2.382       .  S
Zr607       O616   2.378       .  S
Zr608       O627   2.439       .  S
Zr608       O620   2.434       .  S
Zr608       O621   2.429       .  S
Zr608       O614   2.387       .  S
Zr608       O615   2.375       .  S
Zr609       O611   2.437       .  S
Zr609       O633   2.435       .  S
Zr609       O635   2.499       .  S
Zr609       O613   2.381       .  S
Zr609       O616   2.365       .  S
Zr610       O636   2.437       .  S
Zr610       O637   2.436       .  S
Zr610       O612   2.437       .  S
Zr610       O613   2.402       .  S
Zr610       O614   2.397       .  S
O611        H648   0.990       .  S
O612        H643   0.990       .  S
O612        H657   0.990       .  S
O614        H640   0.967       .  S
O615       Zr625   2.362       .  S
O616       Zr625   2.378       .  S
O616        H641   0.964       .  S
C617       C3204   1.484       .  S
C618       C3177   1.486       .  S
C619       C3384   1.507       .  S
O620        H656   0.990       .  S
O621        C623   1.283       .  A
O622        C623   1.279       .  A
C623       C3257   1.465       .  S
O624       Zr625   2.435       .  S
O624        H653   0.990       .  S
Zr625       O628   2.436       .  S
Zr625       O629   2.437       .  S
Zr625       O630   2.405       .  S
O626        C631   1.280       .  A
O627        H644   0.990       .  S
O627        H659   0.991       .  S
O628        H645   0.990       .  S
O629        H649   0.989       .  S
O629        H658   0.990       .  S
O630        C631   1.281       .  A
C631       C3244   1.458       .  S
O632        H651   0.990       .  S
O632        H655   0.990       .  S
O633        H647   0.990       .  S
O633        H654   0.990       .  S
O634        C638   1.281       .  A
O635        C638   1.297       .  A
O636        H646   0.990       .  S
O637        H650   0.990       .  S
C638       C3224   1.498       .  S
Zr661       O662   2.436   1_565  S
Zr661       O663   2.456       .  S
Zr661       O664   2.509   1_565  S
Zr661       O667   2.550   1_565  S
Zr661       O669   2.408       .  S
Zr661       O670   2.404       .  S
Zr661       O671   2.442       .  S
Zr661       O672   2.407       .  S
O662        H718   0.990       .  S
O662        H726   0.990       .  S
O663        C683   1.288       .  A
O664        C685   1.295   1_545  A
O665       Zr675   2.380       .  S
O665        C684   1.273   1_565  A
O666       Zr674   2.418       .  S
O666        C685   1.276       .  A
O667        C684   1.307       .  A
O668       Zr676   2.424       .  S
O668        C683   1.283       .  A
O669       Zr674   2.410       .  S
O669       Zr676   2.373       .  S
O670       Zr675   2.397       .  S
O670       Zr676   2.385       .  S
O670        H705   0.965       .  S
O671       Zr674   2.423       .  S
O671       Zr691   2.366       .  S
O671        H708   0.965       .  S
O672       Zr675   2.407       .  S
O672       Zr691   2.394       .  S
Zr673       O698   2.438       .  S
Zr673       O692   2.415       .  S
Zr673       O700   2.407       .  S
Zr673       O688   2.411       .  S
Zr673       O679   2.402       .  S
Zr673       O680   2.399       .  S
Zr673       O681   2.371       .  S
Zr673       O682   2.383       .  S
Zr674       O693   2.434       .  S
Zr674       O686   2.435       .  S
Zr674       O687   2.486       .  S
Zr674       O680   2.389       .  S
Zr674       O681   2.367       .  S
Zr675       O677   2.438       .  S
Zr675       O699   2.435       .  S
Zr675       O701   2.430       .  S
Zr675       O679   2.374       .  S
Zr675       O682   2.383       .  S
Zr676       O702   2.437       .  S
Zr676       O703   2.436       .  S
Zr676       O678   2.435       .  S
Zr676       O679   2.401       .  S
Zr676       O680   2.401       .  S
O677        H714   0.991       .  S
O678        H709   0.990       .  S
O678        H723   0.990       .  S
O680        H706   0.966       .  S
O681       Zr691   2.375       .  S
O682       Zr691   2.352       .  S
O682        H707   0.964       .  S
C683       C3104   1.490       .  S
C684       C3137   1.508       .  S
C685       C3077   1.514       .  S
O686        H722   0.990       .  S
O687        C689   1.294       .  A
O688        C689   1.281       .  A
C689       C3157   1.493       .  S
O690       Zr691   2.434   1_545  S
O690        H719   0.990       .  S
Zr691       O694   2.436   1_655  S
Zr691       O695   2.438       .  S
Zr691       O696   2.412       .  S
O692        C697   1.280       .  A
O693        H710   0.990   1_655  S
O693        H725   0.990       .  S
O694        H711   0.990       .  S
O695        H715   0.990       .  S
O695        H724   0.990       .  S
O696        C697   1.282       .  A
C697       C3117   1.466   1_655  S
O698        H717   0.990       .  S
O698        H721   0.990       .  S
O699        H713   0.990       .  S
O699        H720   0.990       .  S
O700        C704   1.281       .  A
O701        C704   1.282       .  A
O702        H712   0.990       .  S
O703        H716   0.990       .  S
C704       C3357   1.457       .  S
Zr727       O728   2.437       .  S
Zr727       O729   2.466       .  S
Zr727       O730   2.493       .  S
Zr727       O733   2.555       .  S
Zr727       O735   2.404       .  S
Zr727       O736   2.390       .  S
Zr727       O737   2.452       .  S
Zr727       O738   2.414       .  S
O728        H784   0.990       .  S
O728        H792   0.990       .  S
O729        C749   1.290       .  A
O730        C751   1.294       .  A
O731       Zr741   2.376       .  S
O731        C750   1.273       .  A
O732       Zr740   2.420       .  S
O732        C751   1.278       .  A
O733        C750   1.308       .  A
O734       Zr742   2.418       .  S
O734        C749   1.281       .  A
O735       Zr740   2.412       .  S
O735       Zr742   2.370       .  S
O736       Zr741   2.398       .  S
O736       Zr742   2.380       .  S
O736        H771   0.964       .  S
O737       Zr740   2.429       .  S
O737       Zr757   2.367       .  S
O737        H774   0.965       .  S
O738       Zr741   2.403       .  S
O738       Zr757   2.406       .  S
Zr739       O764   2.439       .  S
Zr739       O758   2.403       .  S
Zr739       O766   2.420       .  S
Zr739       O754   2.411       .  S
Zr739       O745   2.395       .  S
Zr739       O746   2.395       .  S
Zr739       O747   2.368       .  S
Zr739       O748   2.381       .  S
Zr740       O759   2.438       .  S
Zr740       O752   2.434       .  S
Zr740       O753   2.501       .  S
Zr740       O746   2.390       .  S
Zr740       O747   2.366       .  S
Zr741       O743   2.436       .  S
Zr741       O765   2.437       .  S
Zr741       O767   2.421       .  S
Zr741       O745   2.381       .  S
Zr741       O748   2.380       .  S
Zr742       O768   2.438       .  S
Zr742       O769   2.435       .  S
Zr742       O744   2.438       .  S
Zr742       O745   2.399       .  S
Zr742       O746   2.403       .  S
O743        H780   0.991       .  S
O744        H775   0.990       .  S
O744        H789   0.990       .  S
O746        H772   0.966       .  S
O747       Zr757   2.372       .  S
O748       Zr757   2.360       .  S
O748        H773   0.964       .  S
C749       C3024   1.490       .  S
C750       C3144   1.508       .  S
C751       C2997   1.504       .  S
O752        H788   0.990       .  S
O753        C755   1.297       .  A
O754        C755   1.281       .  A
C755       C3037   1.515       .  S
O756       Zr757   2.436       .  S
O756        H785   0.990       .  S
Zr757       O760   2.437       .  S
Zr757       O761   2.440       .  S
Zr757       O762   2.423       .  S
O758        C763   1.279       .  A
O759        H776   0.990       .  S
O759        H791   0.990       .  S
O760        H777   0.990       .  S
O761        H781   0.990       .  S
O761        H790   0.990       .  S
O762        C763   1.283       .  A
C763       C3264   1.475       .  S
O764        H783   0.990       .  S
O764        H787   0.990       .  S
O765        H779   0.990       .  S
O765        H786   0.990       .  S
O766        C770   1.283       .  A
O767        C770   1.281       .  A
O768        H778   0.990       .  S
O769        H782   0.990       .  S
C770       C3064   1.456       .  S
Zr793       O794   2.438       .  S
Zr793       O795   2.461       .  S
Zr793       O796   2.555       .  S
Zr793       O799   2.500       .  S
Zr793       O801   2.382       .  S
Zr793       O802   2.415       .  S
Zr793       O803   2.411       .  S
Zr793       O804   2.413       .  S
O794        H850   0.990       .  S
O794        H858   0.990       .  S
O795        C815   1.289       .  A
O796        C817   1.307       .  A
O797       Zr807   2.432       .  S
O797        C816   1.281       .  A
O798       Zr806   2.392       .  S
O798        C817   1.276       .  A
O799        C816   1.299       .  A
O800       Zr808   2.427       .  S
O800        C815   1.283       .  A
O801       Zr806   2.403       .  S
O801       Zr808   2.379       .  S
O802       Zr807   2.398       .  S
O802       Zr808   2.381       .  S
O802        H837   0.964       .  S
O803       Zr806   2.401       .  S
O803       Zr823   2.411       .  S
O803        H840   0.965       .  S
O804       Zr807   2.408       .  S
O804       Zr823   2.367       .  S
Zr805       O830   2.438       .  S
Zr805       O824   2.409       .  S
Zr805       O832   2.402       .  S
Zr805       O820   2.408       .  S
Zr805       O811   2.394       .  S
Zr805       O812   2.397       .  S
Zr805       O813   2.371       .  S
Zr805       O814   2.377       .  S
Zr806       O825   2.441       .  S
Zr806       O818   2.435       .  S
Zr806       O819   2.429       .  S
Zr806       O812   2.394       .  S
Zr806       O813   2.370       .  S
Zr807       O809   2.436       .  S
Zr807       O831   2.435       .  S
Zr807       O833   2.499       .  S
Zr807       O811   2.385       .  S
Zr807       O814   2.361       .  S
Zr808       O834   2.436       .  S
Zr808       O835   2.436       .  S
Zr808       O810   2.437       .  S
Zr808       O811   2.405       .  S
Zr808       O812   2.406       .  S
O809        H846   0.990       .  S
O810        H841   0.990       .  S
O810        H855   0.990       .  S
O812        H838   0.966       .  S
O813       Zr823   2.356       .  S
O814       Zr823   2.380       .  S
O814        H839   0.966       .  S
C815       C2937   1.498       .  S
C816       C2924   1.484       .  S
C817       C2984   1.509       .  S
O818        H854   0.990       .  S
O819        C821   1.284       .  A
O820        C821   1.282       .  A
C821       C3124   1.477       .  S
O822       Zr823   2.434       .  S
O822        H851   0.990       .  S
Zr823       O826   2.436       .  S
Zr823       O827   2.437       .  S
Zr823       O828   2.414       .  S
O824        C829   1.280       .  A
O825        H842   0.990       .  S
O825        H857   0.989       .  S
O826        H843   0.990       .  S
O827        H847   0.990       .  S
O827        H856   0.990       .  S
O828        C829   1.281       .  A
C829       C2957   1.469       .  S
O830        H849   0.990       .  S
O830        H853   0.990       .  S
O831        H845   0.990       .  S
O831        H852   0.990       .  S
O832        C836   1.280       .  A
O833        C836   1.296       .  A
O834        H844   0.990       .  S
O835        H848   0.990       .  S
C836       C3317   1.502       .  S
Zr859       O860   2.437   1_545  S
Zr859       O861   2.460       .  S
Zr859       O862   2.557       .  S
Zr859       O865   2.514       .  S
Zr859       O867   2.392       .  S
Zr859       O868   2.417       .  S
Zr859       O869   2.412       .  S
Zr859       O870   2.405       .  S
O860        H916   0.990       .  S
O860        H924   0.990       .  S
O861        C881   1.289       .  A
O862        C883   1.308       .  A
O863       Zr873   2.411       .  S
O863        C882   1.275       .  A
O864       Zr872   2.381       .  S
O864        C883   1.274       .  A
O865        C882   1.299       .  A
O866       Zr874   2.446       .  S
O866        C881   1.287       .  A
O867       Zr872   2.404       .  S
O867       Zr874   2.377       .  S
O868       Zr873   2.388       .  S
O868       Zr874   2.369       .  S
O868        H903   0.963       .  S
O869       Zr872   2.404       .  S
O869       Zr889   2.403       .  S
O869        H906   0.965       .  S
O870       Zr873   2.412       .  S
O870       Zr889   2.364       .  S
Zr871       O896   2.439       .  S
Zr871       O890   2.438       .  S
Zr871       O898   2.419       .  S
Zr871       O886   2.410       .  S
Zr871       O877   2.403       .  S
Zr871       O878   2.410       .  S
Zr871       O879   2.372       .  S
Zr871       O880   2.370       .  S
Zr872       O891   2.440       .  S
Zr872       O884   2.434       .  S
Zr872       O885   2.428       .  S
Zr872       O878   2.383       .  S
Zr872       O879   2.372       .  S
Zr873       O875   2.434       .  S
Zr873       O897   2.435       .  S
Zr873       O899   2.477       .  S
Zr873       O877   2.383       .  S
Zr873       O880   2.354       .  S
Zr874       O900   2.435       .  S
Zr874       O901   2.436       .  S
Zr874       O876   2.439       .  S
Zr874       O877   2.414       .  S
Zr874       O878   2.412       .  S
O875        H912   0.990       .  S
O876        H907   0.990       .  S
O876        H921   0.989       .  S
O878        H904   0.966       .  S
O879       Zr889   2.360       .  S
O880       Zr889   2.384       .  S
O880        H905   0.964       .  S
C881       C2884   1.500       .  S
C882       C2857   1.508       .  S
C883       C2977   1.506   1_545  S
O884        H920   0.990       .  S
O885        C887   1.283       .  A
O886        C887   1.281       .  A
C887       C2904   1.461       .  S
O888       Zr889   2.436       .  S
O888        H917   0.990       .  S
Zr889       O892   2.435       .  S
Zr889       O893   2.437       .  S
Zr889       O894   2.408       .  S
O890        C895   1.286       .  A
O891        H908   0.990       .  S
O891        H923   0.990       .  S
O892        H909   0.990       .  S
O893        H913   0.990       .  S
O893        H922   0.990       .  S
O894        C895   1.281       .  A
C895       C3057   1.469       .  S
O896        H915   0.990       .  S
O896        H919   0.990       .  S
O897        H911   0.990       .  S
O897        H918   0.990       .  S
O898        C902   1.283       .  A
O899        C902   1.292       .  A
O900        H910   0.990       .  S
O901        H914   0.990       .  S
C902       C3217   1.503       .  S
Zr925       O926   2.437       .  S
Zr925       O927   2.476       .  S
Zr925       O928   2.494       .  S
Zr925       O931   2.548       .  S
Zr925       O933   2.405       .  S
Zr925       O934   2.399       .  S
Zr925       O935   2.444       .  S
Zr925       O936   2.410       .  S
O926        H982   0.990       .  S
O926        H990   0.991       .  S
O927        C947   1.292       .  A
O928        C949   1.292       .  A
O929       Zr939   2.392       .  S
O929        C948   1.277       .  A
O930       Zr938   2.409       .  S
O930        C949   1.274       .  A
O931        C948   1.307       .  A
O932       Zr940   2.421       .  S
O932        C947   1.282       .  A
O933       Zr938   2.407       .  S
O933       Zr940   2.370       .  S
O934       Zr939   2.401       .  S
O934       Zr940   2.384       .  S
O934        H969   0.966       .  S
O935       Zr938   2.423       .  S
O935       Zr955   2.377       .  S
O935        H972   0.964       .  S
O936       Zr939   2.395       .  S
O936       Zr955   2.396       .  S
Zr937       O962   2.441       .  S
Zr937       O956   2.425       .  S
Zr937       O964   2.403       .  S
Zr937       O952   2.428       .  S
Zr937       O943   2.401       .  S
Zr937       O944   2.394       .  S
Zr937       O945   2.370       .  S
Zr937       O946   2.386       .  S
Zr938       O957   2.435       .  S
Zr938       O950   2.434       .  S
Zr938       O951   2.481       .  S
Zr938       O944   2.390       .  S
Zr938       O945   2.363       .  S
Zr939       O941   2.437       .  S
Zr939       O963   2.436       .  S
Zr939       O965   2.424       .  S
Zr939       O943   2.387       .  S
Zr939       O946   2.383       .  S
Zr940       O966   2.437       .  S
Zr940       O967   2.435       .  S
Zr940       O942   2.437       .  S
Zr940       O943   2.392       .  S
Zr940       O944   2.407       .  S
O941        H978   0.990       .  S
O942        H973   0.990       .  S
O942        H987   0.990       .  S
O944        H970   0.967       .  S
O945       Zr955   2.370       .  S
O946       Zr955   2.361       .  S
O946        H971   0.965       .  S
C947       C2817   1.495       .  S
C948       C2844   1.512       .  S
C949       C2797   1.504       .  S
O950        H986   0.990       .  S
O951        C953   1.293       .  A
O952        C953   1.283       .  A
C953       C3044   1.497       .  S
O954       Zr955   2.434       .  S
O954        H983   0.990       .  S
Zr955       O958   2.438       .  S
Zr955       O959   2.440       .  S
Zr955       O960   2.421       .  S
O956        C961   1.282       .  A
O957        H974   0.990       .  S
O957        H989   0.990       .  S
O958        H975   0.990       .  S
O959        H979   0.990       .  S
O959        H988   0.990       .  S
O960        C961   1.283       .  A
C961       C2897   1.466       .  S
O962        H981   0.990       .  S
O962        H985   0.990       .  S
O963        H977   0.990       .  S
O963        H984   0.990       .  S
O964        C968   1.281       .  A
O965        C968   1.283       .  A
O966        H976   0.990       .  S
O967        H980   0.990       .  S
C968       C3237   1.457       .  S
Zr991       O992   2.438       .  S
Zr991       O993   2.461       .  S
Zr991       O994   2.471       .  S
Zr991       O997   2.551       .  S
Zr991       O999   2.403       .  S
Zr991      O1000   2.386       .  S
Zr991      O1001   2.455       .  S
Zr991      O1002   2.415       .  S
O992       H1048   0.990       .  S
O992       H1056   0.990       .  S
O993       C1013   1.289       .  A
O994       C1015   1.290       .  A
O995      Zr1005   2.384       .  S
O995       C1014   1.274       .  A
O996      Zr1004   2.432       .  S
O996       C1015   1.279       .  A
O997       C1014   1.308       .  A
O998      Zr1006   2.434       .  S
O998       C1013   1.284       .  A
O999      Zr1004   2.414       .  S
O999      Zr1006   2.362       .  S
O1000     Zr1005   2.405       .  S
O1000     Zr1006   2.379       .  S
O1000      H1035   0.964       .  S
O1001     Zr1004   2.430       .  S
O1001     Zr1021   2.363       .  S
O1001      H1038   0.964       .  S
O1002     Zr1005   2.402       .  S
O1002     Zr1021   2.408       .  S
Zr1003     O1028   2.440       .  S
Zr1003     O1022   2.407       .  S
Zr1003     O1030   2.396       .  S
Zr1003     O1018   2.390       .  S
Zr1003     O1009   2.392       .  S
Zr1003     O1010   2.390       .  S
Zr1003     O1011   2.366       .  S
Zr1003     O1012   2.375       .  S
Zr1004     O1023   2.434       .  S
Zr1004     O1016   2.435       .  S
Zr1004     O1017   2.515       .  S
Zr1004     O1010   2.388       .  S
Zr1004     O1011   2.364       .  S
Zr1005     O1007   2.437       .  S
Zr1005     O1029   2.437       .  S
Zr1005     O1031   2.431       .  S
Zr1005     O1009   2.383       .  S
Zr1005     O1012   2.374       .  S
Zr1006     O1032   2.436       .  S
Zr1006     O1033   2.435       .  S
Zr1006     O1008   2.436       .  S
Zr1006     O1009   2.406       .  S
Zr1006     O1010   2.401       .  S
O1007      H1044   0.990       .  S
O1008      H1039   0.990       .  S
O1008      H1053   0.990       .  S
O1010      H1036   0.967       .  S
O1011     Zr1021   2.375       .  S
O1012     Zr1021   2.354       .  S
O1012      H1037   0.964       .  S
C1013      C2784   1.499       .  S
C1014      C2837   1.508       .  S
C1015      C2757   1.499       .  S
O1016      H1052   0.990       .  S
O1017      C1019   1.299       .  A
O1018      C1019   1.278       .  A
C1019      C3164   1.509       .  S
O1020     Zr1021   2.435       .  S
O1020      H1049   0.990       .  S
Zr1021     O1024   2.437       .  S
Zr1021     O1025   2.440       .  S
Zr1021     O1026   2.425       .  S
O1022      C1027   1.280       .  A
O1023      H1040   0.990       .  S
O1023      H1055   0.990       .  S
O1024      H1041   0.990       .  S
O1025      H1045   0.990       .  S
O1025      H1054   0.990       .  S
O1026      C1027   1.283       .  A
C1027      C3337   1.480   1_455  S
O1028      H1047   0.990       .  S
O1028      H1051   0.990       .  S
O1029      H1043   0.990       .  S
O1029      H1050   0.990       .  S
O1030      C1034   1.278       .  A
O1031      C1034   1.284       .  A
O1032      H1042   0.990       .  S
O1033      H1046   0.990       .  S
C1034      C2964   1.477       .  S
Zr1057     O1058   2.440       .  S
Zr1057     O1059   2.455       .  S
Zr1057     O1060   2.552       .  S
Zr1057     O1063   2.506       .  S
Zr1057     O1065   2.392       .  S
Zr1057     O1066   2.418       .  S
Zr1057     O1067   2.416       .  S
Zr1057     O1068   2.397       .  S
O1058      H1114   0.990       .  S
O1058      H1122   0.990       .  S
O1059      C1079   1.287       .  A
O1060      C1081   1.307       .  A
O1061     Zr1071   2.433       .  S
O1061      C1080   1.283       .  A
O1062     Zr1070   2.400       .  S
O1062      C1081   1.278       .  A
O1063      C1080   1.300       .  A
O1064     Zr1072   2.435       .  S
O1064      C1079   1.284       .  A
O1065     Zr1070   2.404       .  S
O1065     Zr1072   2.377       .  S
O1066     Zr1071   2.396       .  S
O1066     Zr1072   2.378       .  S
O1066      H1101   0.964       .  S
O1067     Zr1070   2.411       .  S
O1067     Zr1087   2.400       .  S
O1067      H1104   0.965       .  S
O1068     Zr1071   2.412       .  S
O1068     Zr1087   2.358       .  S
Zr1069     O1094   2.438       .  S
Zr1069     O1088   2.437       .  S
Zr1069     O1096   2.404       .  S
Zr1069     O1084   2.399       .  S
Zr1069     O1075   2.401       .  S
Zr1069     O1076   2.408       .  S
Zr1069     O1077   2.374       .  S
Zr1069     O1078   2.371       .  S
Zr1070     O1089   2.439       .  S
Zr1070     O1082   2.434       .  S
Zr1070     O1083   2.450       .  S
Zr1070     O1076   2.388       .  S
Zr1070     O1077   2.375       .  S
Zr1071     O1073   2.435       .  S
Zr1071     O1095   2.436       .  S
Zr1071     O1097   2.510       .  S
Zr1071     O1075   2.385       .  S
Zr1071     O1078   2.356       .  S
Zr1072     O1098   2.436       .  S
Zr1072     O1099   2.435       .  S
Zr1072     O1074   2.439       .  S
Zr1072     O1075   2.411       .  S
Zr1072     O1076   2.410       .  S
O1073      H1110   0.990       .  S
O1074      H1105   0.990       .  S
O1074      H1119   0.990       .  S
O1076      H1102   0.966       .  S
O1077     Zr1087   2.359       .  S
O1078     Zr1087   2.383       .  S
O1078      H1103   0.964       .  S
C1079      C3837   1.487       .  S
C1080      C3637   1.492       .  S
C1081      C2744   1.512       .  S
O1082      H1118   0.990       .  S
O1083      C1085   1.288       .  A
O1084      C1085   1.279       .  A
C1085      C2677   1.474       .  S
O1086     Zr1087   2.435       .  S
O1086      H1115   0.990       .  S
Zr1087     O1090   2.434       .  S
Zr1087     O1091   2.436       .  S
Zr1087     O1092   2.396       .  S
O1088      C1093   1.285       .  A
O1089      H1106   0.990       .  S
O1089      H1121   0.990       .  S
O1090      H1107   0.990       .  S
O1091      H1111   0.990       .  S
O1091      H1120   0.990       .  S
O1092      C1093   1.280       .  A
C1093      C2717   1.470       .  S
O1094      H1113   0.990       .  S
O1094      H1117   0.990       .  S
O1095      H1109   0.990       .  S
O1095      H1116   0.990       .  S
O1096      C1100   1.279       .  A
O1097      C1100   1.298       .  A
O1098      H1108   0.990       .  S
O1099      H1112   0.990       .  S
C1100      C2697   1.507       .  S
Zr1123     O1124   2.437   1_545  S
Zr1123     O1125   2.457       .  S
Zr1123     O1126   2.555       .  S
Zr1123     O1129   2.510       .  S
Zr1123     O1131   2.389       .  S
Zr1123     O1132   2.416       .  S
Zr1123     O1133   2.409       .  S
Zr1123     O1134   2.401       .  S
O1124      H1180   0.990       .  S
O1124      H1188   0.990       .  S
O1125      C1145   1.289       .  A
O1126      C1147   1.307       .  A
O1127     Zr1137   2.429       .  S
O1127      C1146   1.283       .  A
O1128     Zr1136   2.391       .  S
O1128      C1147   1.275       .  A
O1129      C1146   1.301       .  A
O1130     Zr1138   2.439       .  S
O1130      C1145   1.286       .  A
O1131     Zr1136   2.401       .  S
O1131     Zr1138   2.379       .  S
O1132     Zr1137   2.395       .  S
O1132     Zr1138   2.382       .  S
O1132      H1167   0.964       .  S
O1133     Zr1136   2.405       .  S
O1133     Zr1153   2.401       .  S
O1133      H1170   0.965       .  S
O1134     Zr1137   2.409       .  S
O1134     Zr1153   2.361       .  S
Zr1135     O1160   2.439       .  S
Zr1135     O1154   2.420       .  S
Zr1135     O1162   2.411       .  S
Zr1135     O1150   2.431       .  S
Zr1135     O1141   2.406       .  S
Zr1135     O1142   2.409       .  S
Zr1135     O1143   2.366       .  S
Zr1135     O1144   2.381       .  S
Zr1136     O1155   2.442       .  S
Zr1136     O1148   2.436       .  S
Zr1136     O1149   2.430       .  S
Zr1136     O1142   2.391       .  S
Zr1136     O1143   2.370       .  S
Zr1137     O1139   2.435       .  S
Zr1137     O1161   2.437       .  S
Zr1137     O1163   2.505       .  S
Zr1137     O1141   2.384       .  S
Zr1137     O1144   2.365       .  S
Zr1138     O1164   2.436       .  S
Zr1138     O1165   2.438       .  S
Zr1138     O1140   2.437       .  S
Zr1138     O1141   2.412       .  S
Zr1138     O1142   2.417       .  S
O1139      H1176   0.990       .  S
O1140      H1171   0.990       .  S
O1140      H1185   0.990       .  S
O1142      H1168   0.966       .  S
O1143     Zr1153   2.358       .  S
O1144     Zr1153   2.386       .  S
O1144      H1169   0.964       .  S
C1145      C2877   1.488       .  S
C1146      C3084   1.494       .  S
C1147      C2737   1.509   1_545  S
O1148      H1184   0.990       .  S
O1149      C1151   1.283       .  A
O1150      C1151   1.284       .  A
C1151      C2664   1.490       .  S
O1152     Zr1153   2.434       .  S
O1152      H1181   0.990       .  S
Zr1153     O1156   2.437       .  S
Zr1153     O1157   2.435       .  S
Zr1153     O1158   2.412       .  S
O1154      C1159   1.282       .  A
O1155      H1172   0.990       .  S
O1155      H1187   0.990       .  S
O1156      H1173   0.990       .  S
O1157      H1177   0.990       .  S
O1157      H1186   0.990       .  S
O1158      C1159   1.283       .  A
C1159      C2637   1.468       .  S
O1160      H1179   0.990       .  S
O1160      H1183   0.991       .  S
O1161      H1175   0.990       .  S
O1161      H1182   0.990       .  S
O1162      C1166   1.281       .  A
O1163      C1166   1.297       .  A
O1164      H1174   0.990       .  S
O1165      H1178   0.990       .  S
C1166      C2617   1.507       .  S
Zr1189     O1190   2.438       .  S
Zr1189     O1191   2.445       .  S
Zr1189     O1192   2.574       .  S
Zr1189     O1195   2.503       .  S
Zr1189     O1197   2.387       .  S
Zr1189     O1198   2.427       .  S
Zr1189     O1199   2.404       .  S
Zr1189     O1200   2.422       .  S
O1190      H1246   0.990       .  S
O1190      H1254   0.990       .  S
O1191      C1211   1.286       .  A
O1192      C1213   1.311       .  A
O1193     Zr1203   2.418       .  S
O1193      C1212   1.274       .  A
O1194     Zr1202   2.390       .  S
O1194      C1213   1.275       .  A
O1195      C1212   1.296       .  A
O1196     Zr1204   2.430       .  S
O1196      C1211   1.284       .  A
O1197     Zr1202   2.393       .  S
O1197     Zr1204   2.382       .  S
O1198     Zr1203   2.403       .  S
O1198     Zr1204   2.365       .  S
O1198      H1233   0.964       .  S
O1199     Zr1202   2.404       .  S
O1199     Zr1219   2.404       .  S
O1199      H1236   0.965       .  S
O1200     Zr1203   2.422       .  S
O1200     Zr1219   2.364       .  S
Zr1201     O1226   2.437       .  S
Zr1201     O1220   2.431       .  S
Zr1201     O1228   2.422       .  S
Zr1201     O1216   2.411       .  S
Zr1201     O1207   2.402       .  S
Zr1201     O1208   2.402       .  S
Zr1201     O1209   2.378       .  S
Zr1201     O1210   2.373       .  S
Zr1202     O1221   2.437       .  S
Zr1202     O1214   2.434       .  S
Zr1202     O1215   2.413       .  S
Zr1202     O1208   2.382       .  S
Zr1202     O1209   2.383       .  S
Zr1203     O1205   2.435       .  S
Zr1203     O1227   2.437       .  S
Zr1203     O1229   2.499       .  S
Zr1203     O1207   2.380       .  S
Zr1203     O1210   2.362       .  S
Zr1204     O1230   2.437       .  S
Zr1204     O1231   2.435       .  S
Zr1204     O1206   2.436       .  S
Zr1204     O1207   2.407       .  S
Zr1204     O1208   2.398       .  S
O1205      H1242   0.989       .  S
O1206      H1237   0.990       .  S
O1206      H1251   0.990       .  S
O1208      H1234   0.967       .  S
O1209     Zr1219   2.364       .  S
O1210     Zr1219   2.383       .  S
O1210      H1235   0.966       .  S
C1211      C3424   1.480       .  S
C1212      C3504   1.503       .  S
C1213      C2604   1.521       .  S
O1214      H1250   0.990       .  S
O1215      C1217   1.280       .  A
O1216      C1217   1.282       .  A
C1217      C2557   1.458       .  S
O1218     Zr1219   2.435       .  S
O1218      H1247   0.990       .  S
Zr1219     O1222   2.433       .  S
Zr1219     O1223   2.440       .  S
Zr1219     O1224   2.407       .  S
O1220      C1225   1.284       .  A
O1221      H1238   0.990       .  S
O1221      H1253   0.990       .  S
O1222      H1239   0.990       .  S
O1223      H1243   0.990       .  S
O1223      H1252   0.990       .  S
O1224      C1225   1.281       .  A
C1225      C2577   1.474       .  S
O1226      H1245   0.990       .  S
O1226      H1249   0.990       .  S
O1227      H1241   0.990       .  S
O1227      H1248   0.990       .  S
O1228      C1232   1.283       .  A
O1229      C1232   1.297       .  A
O1230      H1240   0.990       .  S
O1231      H1244   0.990       .  S
C1232      C2704   1.510       .  S
Zr1255     O1256   2.438       .  S
Zr1255     O1257   2.456       .  S
Zr1255     O1258   2.576       .  S
Zr1255     O1261   2.513       .  S
Zr1255     O1263   2.387       .  S
Zr1255     O1264   2.425       .  S
Zr1255     O1265   2.408       .  S
Zr1255     O1266   2.420       .  S
O1256      H1312   0.990       .  S
O1256      H1320   0.990       .  S
O1257      C1277   1.288       .  A
O1258      C1279   1.311       .  A
O1259     Zr1269   2.413       .  S
O1259      C1278   1.275       .  A
O1260     Zr1268   2.392       .  S
O1260      C1279   1.274       .  A
O1261      C1278   1.300       .  A
O1262     Zr1270   2.418       .  S
O1262      C1277   1.282       .  A
O1263     Zr1268   2.394       .  S
O1263     Zr1270   2.381       .  S
O1264     Zr1269   2.412       .  S
O1264     Zr1270   2.373       .  S
O1264      H1299   0.965       .  S
O1265     Zr1268   2.405       .  S
O1265     Zr1285   2.396       .  S
O1265      H1302   0.965       .  S
O1266     Zr1269   2.421       .  S
O1266     Zr1285   2.372       .  S
Zr1267     O1292   2.438       .  S
Zr1267     O1286   2.411       .  S
Zr1267     O1294   2.401       .  S
Zr1267     O1282   2.405       .  S
Zr1267     O1273   2.393       .  S
Zr1267     O1274   2.396       .  S
Zr1267     O1275   2.366       .  S
Zr1267     O1276   2.378       .  S
Zr1268     O1287   2.438       .  S
Zr1268     O1280   2.435       .  S
Zr1268     O1281   2.420       .  S
Zr1268     O1274   2.384       .  S
Zr1268     O1275   2.370       .  S
Zr1269     O1271   2.437       .  S
Zr1269     O1293   2.436       .  S
Zr1269     O1295   2.498       .  S
Zr1269     O1273   2.380       .  S
Zr1269     O1276   2.363       .  S
Zr1270     O1296   2.439       .  S
Zr1270     O1297   2.435       .  S
Zr1270     O1272   2.435       .  S
Zr1270     O1273   2.398       .  S
Zr1270     O1274   2.397       .  S
O1271      H1308   0.990       .  S
O1272      H1303   0.990       .  S
O1272      H1317   0.990       .  S
O1274      H1300   0.966       .  S
O1275     Zr1285   2.357       .  S
O1276     Zr1285   2.383       .  S
O1276      H1301   0.967       .  S
C1277      C3197   1.489       .  S
C1278      C2764   1.492       .  S
C1279      C2597   1.518       .  S
O1280      H1316   0.990       .  S
O1281      C1283   1.282       .  A
O1282      C1283   1.280       .  A
C1283      C2524   1.459       .  S
O1284     Zr1285   2.436       .  S
O1284      H1313   0.990       .  S
Zr1285     O1288   2.436       .  S
Zr1285     O1289   2.437   1_655  S
Zr1285     O1290   2.412       .  S
O1286      C1291   1.281       .  A
O1287      H1304   0.990       .  S
O1287      H1319   0.989       .  S
O1288      H1305   0.990       .  S
O1289      H1309   0.990       .  S
O1289      H1318   0.990       .  S
O1290      C1291   1.282       .  A
C1291      C2537   1.465   1_655  S
O1292      H1311   0.990       .  S
O1292      H1315   0.990       .  S
O1293      H1307   0.990       .  S
O1293      H1314   0.990       .  S
O1294      C1298   1.280       .  A
O1295      C1298   1.297       .  A
O1296      H1306   0.990       .  S
O1297      H1310   0.990       .  S
C1298      C2624   1.500       .  S
Zr1321     O1322   2.438       .  S
Zr1321     O1323   2.455       .  S
Zr1321     O1324   2.486       .  S
Zr1321     O1327   2.559       .  S
Zr1321     O1329   2.410       .  S
Zr1321     O1330   2.391       .  S
Zr1321     O1331   2.452       .  S
Zr1321     O1332   2.406       .  S
O1322      H1378   0.990       .  S
O1322      H1386   0.990       .  S
O1323      C1343   1.287       .  A
O1324      C1345   1.292       .  A
O1325     Zr1335   2.383       .  S
O1325      C1344   1.274       .  A
O1326     Zr1334   2.418       .  S
O1326      C1345   1.277       .  A
O1327      C1344   1.309       .  A
O1328     Zr1336   2.421       .  S
O1328      C1343   1.282       .  A
O1329     Zr1334   2.416       .  S
O1329     Zr1336   2.367       .  S
O1330     Zr1335   2.402       .  S
O1330     Zr1336   2.382       .  S
O1330      H1365   0.965       .  S
O1331     Zr1334   2.429       .  S
O1331     Zr1351   2.367       .  S
O1331      H1368   0.965       .  S
O1332     Zr1335   2.399       .  S
O1332     Zr1351   2.404       .  S
Zr1333     O1358   2.439       .  S
Zr1333     O1352   2.412       .  S
Zr1333     O1360   2.393       .  S
Zr1333     O1348   2.410       .  S
Zr1333     O1339   2.396       .  S
Zr1333     O1340   2.388       .  S
Zr1333     O1341   2.367       .  S
Zr1333     O1342   2.379       .  S
Zr1334     O1353   2.434       .  S
Zr1334     O1346   2.436       .  S
Zr1334     O1347   2.505       .  S
Zr1334     O1340   2.388       .  S
Zr1334     O1341   2.362       .  S
Zr1335     O1337   2.436       .  S
Zr1335     O1359   2.437       .  S
Zr1335     O1361   2.420       .  S
Zr1335     O1339   2.389       .  S
Zr1335     O1342   2.378       .  S
Zr1336     O1362   2.437       .  S
Zr1336     O1363   2.435       .  S
Zr1336     O1338   2.436       .  S
Zr1336     O1339   2.397       .  S
Zr1336     O1340   2.400       .  S
O1337      H1374   0.990       .  S
O1338      H1369   0.990       .  S
O1338      H1383   0.990       .  S
O1340      H1366   0.967       .  S
O1341     Zr1351   2.371       .  S
O1342     Zr1351   2.362       .  S
O1342      H1367   0.966       .  S
C1343      C3524   1.489       .  S
C1344      C2504   1.510       .  S
C1345      C3397   1.502       .  S
O1346      H1382   0.990       .  S
O1347      C1349   1.298       .  A
O1348      C1349   1.281       .  A
C1349      C2477   1.509       .  S
O1350     Zr1351   2.434       .  S
O1350      H1379   0.990       .  S
Zr1351     O1354   2.436       .  S
Zr1351     O1355   2.438       .  S
Zr1351     O1356   2.412       .  S
O1352      C1357   1.280       .  A
O1353      H1370   0.990       .  S
O1353      H1385   0.990       .  S
O1354      H1371   0.990       .  S
O1355      H1375   0.990       .  S
O1355      H1384   0.989       .  S
O1356      C1357   1.280       .  A
C1357      C2517   1.457       .  S
O1358      H1377   0.990       .  S
O1358      H1381   0.990       .  S
O1359      H1373   0.991       .  S
O1359      H1380   0.990       .  S
O1360      C1364   1.279       .  A
O1361      C1364   1.281       .  A
O1362      H1372   0.990       .  S
O1363      H1376   0.990       .  S
C1364      C2644   1.453       .  S
Zr1387     O1388   2.439   1_565  S
Zr1387     O1389   2.474       .  S
Zr1387     O1390   2.502   1_565  S
Zr1387     O1393   2.556   1_565  S
Zr1387     O1395   2.405       .  S
Zr1387     O1396   2.392       .  S
Zr1387     O1397   2.440       .  S
Zr1387     O1398   2.412       .  S
O1388      H1444   0.990       .  S
O1388      H1452   0.990       .  S
O1389      C1409   1.291       .  A
O1390      C1411   1.298   1_545  A
O1391     Zr1401   2.390       .  S
O1391      C1410   1.275   1_565  A
O1392     Zr1400   2.429       .  S
O1392      C1411   1.283       .  A
O1393      C1410   1.309       .  A
O1394     Zr1402   2.403       .  S
O1394      C1409   1.278       .  A
O1395     Zr1400   2.414       .  S
O1395     Zr1402   2.380       .  S
O1396     Zr1401   2.395       .  S
O1396     Zr1402   2.383       .  S
O1396      H1431   0.965       .  S
O1397     Zr1400   2.419       .  S
O1397     Zr1417   2.366       .  S
O1397      H1434   0.964       .  S
O1398     Zr1401   2.405       .  S
O1398     Zr1417   2.403       .  S
Zr1399     O1424   2.440       .  S
Zr1399     O1418   2.418       .  S
Zr1399     O1426   2.399       .  S
Zr1399     O1414   2.402       .  S
Zr1399     O1405   2.396       .  S
Zr1399     O1406   2.392       .  S
Zr1399     O1407   2.380       .  S
Zr1399     O1408   2.380       .  S
Zr1400     O1419   2.442       .  S
Zr1400     O1412   2.434       .  S
Zr1400     O1413   2.504       .  S
Zr1400     O1406   2.384       .  S
Zr1400     O1407   2.371       .  S
Zr1401     O1403   2.434       .  S
Zr1401     O1425   2.434       .  S
Zr1401     O1427   2.429       .  S
Zr1401     O1405   2.382       .  S
Zr1401     O1408   2.380       .  S
Zr1402     O1428   2.436       .  S
Zr1402     O1429   2.436       .  S
Zr1402     O1404   2.438       .  S
Zr1402     O1405   2.397       .  S
Zr1402     O1406   2.394       .  S
O1403      H1440   0.990       .  S
O1404      H1435   0.990       .  S
O1404      H1449   0.990       .  S
O1406      H1432   0.967       .  S
O1407     Zr1417   2.375       .  S
O1408     Zr1417   2.356       .  S
O1408      H1433   0.964       .  S
C1409      C3097   1.485       .  S
C1410      C2497   1.513       .  S
C1411      C2864   1.489   1_565  S
O1412      H1448   0.990       .  S
O1413      C1415   1.298       .  A
O1414      C1415   1.279       .  A
C1415      C2457   1.503       .  S
O1416     Zr1417   2.438       .  S
O1416      H1445   0.990   1_565  S
Zr1417     O1420   2.437       .  S
Zr1417     O1421   2.440       .  S
Zr1417     O1422   2.426       .  S
O1418      C1423   1.281       .  A
O1419      H1436   0.990       .  S
O1419      H1451   0.989       .  S
O1420      H1437   0.990       .  S
O1421      H1441   0.990       .  S
O1421      H1450   0.990       .  S
O1422      C1423   1.283       .  A
C1423      C2684   1.464       .  S
O1424      H1443   0.990       .  S
O1424      H1447   0.990       .  S
O1425      H1439   0.990       .  S
O1425      H1446   0.990       .  S
O1426      C1430   1.279       .  A
O1427      C1430   1.283       .  A
O1428      H1438   0.990       .  S
O1429      H1442   0.990       .  S
C1430      C2584   1.463       .  S
Zr1453     O1454   2.438       .  S
Zr1453     O1455   2.454       .  S
Zr1453     O1456   2.485       .  S
Zr1453     O1459   2.552       .  S
Zr1453     O1461   2.405       .  S
Zr1453     O1462   2.390       .  S
Zr1453     O1463   2.449       .  S
Zr1453     O1464   2.413       .  S
O1454      H1510   0.991       .  S
O1454      H1518   0.990       .  S
O1455      C1475   1.288       .  A
O1456      C1477   1.291       .  A
O1457     Zr1467   2.389       .  S
O1457      C1476   1.275       .  A
O1458     Zr1466   2.425       .  S
O1458      C1477   1.277       .  A
O1459      C1476   1.308       .  A
O1460     Zr1468   2.445       .  S
O1460      C1475   1.285       .  A
O1461     Zr1466   2.414       .  S
O1461     Zr1468   2.364       .  S
O1462     Zr1467   2.404       .  S
O1462     Zr1468   2.379       .  S
O1462      H1497   0.965       .  S
O1463     Zr1466   2.427       .  S
O1463     Zr1483   2.355       .  S
O1463      H1500   0.965       .  S
O1464     Zr1467   2.405       .  S
O1464     Zr1483   2.399       .  S
Zr1465     O1490   2.441       .  S
Zr1465     O1484   2.427       .  S
Zr1465     O1492   2.423       .  S
Zr1465     O1480   2.430       .  S
Zr1465     O1471   2.406       .  S
Zr1465     O1472   2.399       .  S
Zr1465     O1473   2.370       .  S
Zr1465     O1474   2.384       .  S
Zr1466     O1485   2.434       .  S
Zr1466     O1478   2.435       .  S
Zr1466     O1479   2.500       .  S
Zr1466     O1472   2.389       .  S
Zr1466     O1473   2.370       .  S
Zr1467     O1469   2.438       .  S
Zr1467     O1491   2.436       .  S
Zr1467     O1493   2.426       .  S
Zr1467     O1471   2.387       .  S
Zr1467     O1474   2.383       .  S
Zr1468     O1494   2.438       .  S
Zr1468     O1495   2.435       .  S
Zr1468     O1470   2.437       .  S
Zr1468     O1471   2.411       .  S
Zr1468     O1472   2.411       .  S
O1469      H1506   0.991       .  S
O1470      H1501   0.990       .  S
O1470      H1515   0.990       .  S
O1472      H1498   0.966       .  S
O1473     Zr1483   2.382       .  S
O1474     Zr1483   2.353       .  S
O1474      H1499   0.965       .  S
C1475      C3664   1.491       .  S
C1476      C2444   1.509       .  S
C1477      C3824   1.503       .  S
O1478      H1514   0.989       .  S
O1479      C1481   1.297       .  A
O1480      C1481   1.284       .  A
C1481      C2484   1.509       .  S
O1482     Zr1483   2.435       .  S
O1482      H1511   0.990       .  S
Zr1483     O1486   2.436       .  S
Zr1483     O1487   2.438       .  S
Zr1483     O1488   2.407       .  S
O1484      C1489   1.283       .  A
O1485      H1502   0.990       .  S
O1485      H1517   0.990       .  S
O1486      H1503   0.990       .  S
O1487      H1507   0.990       .  S
O1487      H1516   0.990       .  S
O1488      C1489   1.280       .  A
C1489      C2657   1.478       .  S
O1490      H1509   0.990       .  S
O1490      H1513   0.990       .  S
O1491      H1505   0.990       .  S
O1491      H1512   0.990       .  S
O1492      C1496   1.284       .  A
O1493      C1496   1.282       .  A
O1494      H1504   0.990       .  S
O1495      H1508   0.990       .  S
C1496      C2544   1.478       .  S
Zr1519     O1520   2.437       .  S
Zr1519     O1521   2.490       .  S
Zr1519     O1522   2.511       .  S
Zr1519     O1525   2.560       .  S
Zr1519     O1527   2.398       .  S
Zr1519     O1528   2.397       .  S
Zr1519     O1529   2.433       .  S
Zr1519     O1530   2.413       .  S
O1520      H1576   0.990       .  S
O1520      H1584   0.990       .  S
O1521      C1541   1.294       .  A
O1522      C1543   1.300       .  A
O1523     Zr1533   2.389       .  S
O1523      C1542   1.275       .  A
O1524     Zr1532   2.383       .  S
O1524      C1543   1.278       .  A
O1525      C1542   1.310       .  A
O1526     Zr1534   2.419       .  S
O1526      C1541   1.281       .  A
O1527     Zr1532   2.410       .  S
O1527     Zr1534   2.371       .  S
O1528     Zr1533   2.405       .  S
O1528     Zr1534   2.382       .  S
O1528      H1563   0.964       .  S
O1529     Zr1532   2.425       .  S
O1529     Zr1549   2.375       .  S
O1529      H1566   0.965       .  S
O1530     Zr1533   2.401       .  S
O1530     Zr1549   2.390       .  S
Zr1531     O1556   2.439       .  S
Zr1531     O1550   2.422       .  S
Zr1531     O1558   2.399       .  S
Zr1531     O1546   2.434       .  S
Zr1531     O1537   2.403       .  S
Zr1531     O1538   2.388       .  S
Zr1531     O1539   2.368       .  S
Zr1531     O1540   2.384       .  S
Zr1532     O1551   2.437       .  S
Zr1532     O1544   2.434       .  S
Zr1532     O1545   2.491       .  S
Zr1532     O1538   2.382       .  S
Zr1532     O1539   2.360       .  S
Zr1533     O1535   2.438       .  S
Zr1533     O1557   2.434       .  S
Zr1533     O1559   2.437       .  S
Zr1533     O1537   2.381       .  S
Zr1533     O1540   2.379       .  S
Zr1534     O1560   2.439       .  S
Zr1534     O1561   2.434       .  S
Zr1534     O1536   2.435       .  S
Zr1534     O1537   2.399       .  S
Zr1534     O1538   2.405       .  S
O1535      H1572   0.991       .  S
O1536      H1567   0.990       .  S
O1536      H1581   0.990       .  S
O1538      H1564   0.966       .  S
O1539     Zr1549   2.378       .  S
O1540     Zr1549   2.356       .  S
O1540      H1565   0.965       .  S
C1541      C2777   1.501       .  S
C1542      C2437   1.512       .  S
C1543      C3184   1.495       .  S
O1544      H1580   0.990       .  S
O1545      C1547   1.295       .  A
O1546      C1547   1.285       .  A
C1547      C2464   1.516       .  S
O1548     Zr1549   2.435       .  S
O1548      H1577   0.990       .  S
Zr1549     O1552   2.436       .  S
Zr1549     O1553   2.440       .  S
Zr1549     O1554   2.413       .  S
O1550      C1555   1.282       .  A
O1551      H1568   0.990       .  S
O1551      H1583   0.990       .  S
O1552      H1569   0.990       .  S
O1553      H1573   0.990       .  S
O1553      H1582   0.990       .  S
O1554      C1555   1.282       .  A
C1555      C2564   1.461       .  S
O1556      H1575   0.990       .  S
O1556      H1579   0.990       .  S
O1557      H1571   0.990       .  S
O1557      H1578   0.990       .  S
O1558      C1562   1.280       .  A
O1559      C1562   1.284       .  A
O1560      H1570   0.990       .  S
O1561      H1574   0.990       .  S
C1562      C2724   1.465       .  S
Zr1585     O1586   2.437       .  S
Zr1585     O1587   2.453       .  S
Zr1585     O1588   2.506       .  S
Zr1585     O1591   2.541       .  S
Zr1585     O1593   2.398       .  S
Zr1585     O1594   2.393       .  S
Zr1585     O1595   2.431       .  S
Zr1585     O1596   2.413       .  S
O1586      H1642   0.990       .  S
O1586      H1650   0.990       .  S
O1587      C1607   1.287       .  A
O1588      C1609   1.299       .  A
O1589     Zr1599   2.377       .  S
O1589      C1608   1.273       .  A
O1590     Zr1598   2.404       .  S
O1590      C1609   1.279       .  A
O1591      C1608   1.305       .  A
O1592     Zr1600   2.423       .  S
O1592      C1607   1.283       .  A
O1593     Zr1598   2.406       .  S
O1593     Zr1600   2.376       .  S
O1594     Zr1599   2.399       .  S
O1594     Zr1600   2.380       .  S
O1594      H1629   0.966       .  S
O1595     Zr1598   2.423       .  S
O1595     Zr1615   2.376       .  S
O1595      H1632   0.965       .  S
O1596     Zr1599   2.401       .  S
O1596     Zr1615   2.399       .  S
Zr1597     O1622   2.439       .  S
Zr1597     O1616   2.417       .  S
Zr1597     O1624   2.414       .  S
Zr1597     O1612   2.417       .  S
Zr1597     O1603   2.396       .  S
Zr1597     O1604   2.396       .  S
Zr1597     O1605   2.370       .  S
Zr1597     O1606   2.381       .  S
Zr1598     O1617   2.440       .  S
Zr1598     O1610   2.434       .  S
Zr1598     O1611   2.483       .  S
Zr1598     O1604   2.385       .  S
Zr1598     O1605   2.361       .  S
Zr1599     O1601   2.437       .  S
Zr1599     O1623   2.436       .  S
Zr1599     O1625   2.411       .  S
Zr1599     O1603   2.385       .  S
Zr1599     O1606   2.379       .  S
Zr1600     O1626   2.439       .  S
Zr1600     O1627   2.440       .  S
Zr1600     O1602   2.438       .  S
Zr1600     O1603   2.399       .  S
Zr1600     O1604   2.405       .  S
O1601      H1638   0.991       .  S
O1602      H1633   0.990       .  S
O1602      H1647   0.990       .  S
O1604      H1630   0.967       .  S
O1605     Zr1615   2.367       .  S
O1606     Zr1615   2.361       .  S
O1606      H1631   0.965       .  S
C1607      C3737   1.488       .  S
C1608      C2417   1.500       .  S
C1609      C3444   1.505       .  S
O1610      H1646   0.990       .  S
O1611      C1613   1.294       .  A
O1612      C1613   1.283       .  A
C1613      C2364   1.499       .  S
O1614     Zr1615   2.434       .  S
O1614      H1643   0.990       .  S
Zr1615     O1618   2.435       .  S
Zr1615     O1619   2.441       .  S
Zr1615     O1620   2.423       .  S
O1616      C1621   1.281       .  A
O1617      H1634   0.990       .  S
O1617      H1649   0.990       .  S
O1618      H1635   0.990       .  S
O1619      H1639   0.990       .  S
O1619      H1648   0.990       .  S
O1620      C1621   1.284       .  A
C1621      C2404   1.467       .  S
O1622      H1641   0.990       .  S
O1622      H1645   0.990       .  S
O1623      H1637   0.990       .  S
O1623      H1644   0.990       .  S
O1624      C1628   1.282       .  A
O1625      C1628   1.278       .  A
O1626      H1636   0.990       .  S
O1627      H1640   0.990       .  S
C1628      C2377   1.450       .  S
Zr1651     O1652   2.439       .  S
Zr1651     O1653   2.459       .  S
Zr1651     O1654   2.493       .  S
Zr1651     O1657   2.554       .  S
Zr1651     O1659   2.405       .  S
Zr1651     O1660   2.393       .  S
Zr1651     O1661   2.448       .  S
Zr1651     O1662   2.411       .  S
O1652      H1708   0.990       .  S
O1652      H1716   0.990       .  S
O1653      C1673   1.289       .  A
O1654      C1675   1.295       .  A
O1655     Zr1665   2.383       .  S
O1655      C1674   1.275       .  A
O1656     Zr1664   2.426       .  S
O1656      C1675   1.280       .  A
O1657      C1674   1.309       .  A
O1658     Zr1666   2.434       .  S
O1658      C1673   1.284       .  A
O1659     Zr1664   2.415       .  S
O1659     Zr1666   2.369       .  S
O1660     Zr1665   2.403       .  S
O1660     Zr1666   2.375       .  S
O1660      H1695   0.965       .  S
O1661     Zr1664   2.431       .  S
O1661     Zr1681   2.362       .  S
O1661      H1698   0.963       .  S
O1662     Zr1665   2.398       .  S
O1662     Zr1681   2.400       .  S
Zr1663     O1688   2.438       .  S
Zr1663     O1682   2.406       .  S
Zr1663     O1690   2.409       .  S
Zr1663     O1678   2.418       .  S
Zr1663     O1669   2.398       .  S
Zr1663     O1670   2.393       .  S
Zr1663     O1671   2.370       .  S
Zr1663     O1672   2.379       .  S
Zr1664     O1683   2.434       .  S
Zr1664     O1676   2.436       .  S
Zr1664     O1677   2.521       .  S
Zr1664     O1670   2.384       .  S
Zr1664     O1671   2.367       .  S
Zr1665     O1667   2.437       .  S
Zr1665     O1689   2.435       .  S
Zr1665     O1691   2.424       .  S
Zr1665     O1669   2.384       .  S
Zr1665     O1672   2.372       .  S
Zr1666     O1692   2.438       .  S
Zr1666     O1693   2.435       .  S
Zr1666     O1668   2.434       .  S
Zr1666     O1669   2.401       .  S
Zr1666     O1670   2.407       .  S
O1667      H1704   0.990       .  S
O1668      H1699   0.990       .  S
O1668      H1713   0.990       .  S
O1670      H1696   0.966       .  S
O1671     Zr1681   2.381       .  S
O1672     Zr1681   2.354       .  S
O1672      H1697   0.965       .  S
C1673      C2824   1.498       .  S
C1674      C2424   1.506       .  S
C1675      C2917   1.503       .  S
O1676      H1712   0.990       .  S
O1677      C1679   1.301       .  A
O1678      C1679   1.282       .  A
C1679      C2297   1.521       .  S
O1680     Zr1681   2.436       .  S
O1680      H1709   0.990       .  S
Zr1681     O1684   2.438       .  S
Zr1681     O1685   2.442       .  S
Zr1681     O1686   2.412       .  S
O1682      C1687   1.280       .  A
O1683      H1700   0.990       .  S
O1683      H1715   0.990       .  S
O1684      H1701   0.990       .  S
O1685      H1705   0.990       .  S
O1685      H1714   0.990       .  S
O1686      C1687   1.281       .  A
C1687      C2324   1.467       .  S
O1688      H1707   0.990       .  S
O1688      H1711   0.990       .  S
O1689      H1703   0.990       .  S
O1689      H1710   0.990       .  S
O1690      C1694   1.281       .  A
O1691      C1694   1.282       .  A
O1692      H1702   0.990       .  S
O1693      H1706   0.990       .  S
C1694      C2344   1.455       .  S
Zr1717     O1718   2.438   1_545  S
Zr1717     O1719   2.460       .  S
Zr1717     O1720   2.512       .  S
Zr1717     O1723   2.557       .  S
Zr1717     O1725   2.410       .  S
Zr1717     O1726   2.401       .  S
Zr1717     O1727   2.448       .  S
Zr1717     O1728   2.410       .  S
O1718      H1774   0.990       .  S
O1718      H1782   0.990       .  S
O1719      C1739   1.288       .  A
O1720      C1741   1.296       .  A
O1721     Zr1731   2.373       .  S
O1721      C1740   1.272       .  A
O1722     Zr1730   2.409       .  S
O1722      C1741   1.274       .  A
O1723      C1740   1.309       .  A
O1724     Zr1732   2.421       .  S
O1724      C1739   1.282       .  A
O1725     Zr1730   2.414       .  S
O1725     Zr1732   2.367       .  S
O1726     Zr1731   2.403       .  S
O1726     Zr1732   2.378       .  S
O1726      H1761   0.965       .  S
O1727     Zr1730   2.430       .  S
O1727     Zr1747   2.369       .  S
O1727      H1764   0.965       .  S
O1728     Zr1731   2.409       .  S
O1728     Zr1747   2.392       .  S
Zr1729     O1754   2.440       .  S
Zr1729     O1748   2.424       .  S
Zr1729     O1756   2.395       .  S
Zr1729     O1744   2.403       .  S
Zr1729     O1735   2.400       .  S
Zr1729     O1736   2.396       .  S
Zr1729     O1737   2.369       .  S
Zr1729     O1738   2.381       .  S
Zr1730     O1749   2.435       .  S
Zr1730     O1742   2.433       .  S
Zr1730     O1743   2.498       .  S
Zr1730     O1736   2.384       .  S
Zr1730     O1737   2.366       .  S
Zr1731     O1733   2.438       .  S
Zr1731     O1755   2.437       .  S
Zr1731     O1757   2.431       .  S
Zr1731     O1735   2.375       .  S
Zr1731     O1738   2.380       .  S
Zr1732     O1758   2.436       .  S
Zr1732     O1759   2.436       .  S
Zr1732     O1734   2.435       .  S
Zr1732     O1735   2.400       .  S
Zr1732     O1736   2.403       .  S
O1733      H1770   0.991       .  S
O1734      H1765   0.990       .  S
O1734      H1779   0.990       .  S
O1736      H1762   0.966       .  S
O1737     Zr1747   2.382       .  S
O1738     Zr1747   2.358       .  S
O1738      H1763   0.965       .  S
C1739      C3584   1.503       .  S
C1740      C2277   1.504   1_545  S
C1741      C3924   1.512       .  S
O1742      H1778   0.990       .  S
O1743      C1745   1.297       .  A
O1744      C1745   1.279       .  A
C1745      C2357   1.503       .  S
O1746     Zr1747   2.435       .  S
O1746      H1775   0.990       .  S
Zr1747     O1750   2.438   1_655  S
Zr1747     O1751   2.439       .  S
Zr1747     O1752   2.411       .  S
O1748      C1753   1.283       .  A
O1749      H1766   0.990       .  S
O1749      H1781   0.990       .  S
O1750      H1767   0.990       .  S
O1751      H1771   0.990       .  S
O1751      H1780   0.990       .  S
O1752      C1753   1.281       .  A
C1753      C2257   1.473   1_655  S
O1754      H1773   0.990       .  S
O1754      H1777   0.990       .  S
O1755      H1769   0.990       .  S
O1755      H1776   0.990       .  S
O1756      C1760   1.278       .  A
O1757      C1760   1.282       .  A
O1758      H1768   0.990       .  S
O1759      H1772   0.990       .  S
C1760      C2237   1.455       .  S
Zr1783     O1784   2.438       .  S
Zr1783     O1785   2.444       .  S
Zr1783     O1786   2.471       .  S
Zr1783     O1789   2.540       .  S
Zr1783     O1791   2.405       .  S
Zr1783     O1792   2.389       .  S
Zr1783     O1793   2.449       .  S
Zr1783     O1794   2.405       .  S
O1784      H1840   0.990       .  S
O1784      H1848   0.990       .  S
O1785      C1805   1.286       .  A
O1786      C1807   1.290       .  A
O1787     Zr1797   2.400       .  S
O1787      C1806   1.277       .  A
O1788     Zr1796   2.421       .  S
O1788      C1807   1.277       .  A
O1789      C1806   1.305       .  A
O1790     Zr1798   2.436       .  S
O1790      C1805   1.284       .  A
O1791     Zr1796   2.415       .  S
O1791     Zr1798   2.362       .  S
O1792     Zr1797   2.400       .  S
O1792     Zr1798   2.382       .  S
O1792      H1827   0.965       .  S
O1793     Zr1796   2.430       .  S
O1793     Zr1813   2.366       .  S
O1793      H1830   0.965       .  S
O1794     Zr1797   2.402       .  S
O1794     Zr1813   2.397       .  S
Zr1795     O1820   2.439       .  S
Zr1795     O1814   2.416       .  S
Zr1795     O1822   2.415       .  S
Zr1795     O1810   2.407       .  S
Zr1795     O1801   2.402       .  S
Zr1795     O1802   2.399       .  S
Zr1795     O1803   2.371       .  S
Zr1795     O1804   2.379       .  S
Zr1796     O1815   2.436       .  S
Zr1796     O1808   2.436       .  S
Zr1796     O1809   2.511       .  S
Zr1796     O1802   2.389       .  S
Zr1796     O1803   2.364       .  S
Zr1797     O1799   2.437       .  S
Zr1797     O1821   2.436       .  S
Zr1797     O1823   2.435       .  S
Zr1797     O1801   2.386       .  S
Zr1797     O1804   2.380       .  S
Zr1798     O1824   2.436       .  S
Zr1798     O1825   2.434       .  S
Zr1798     O1800   2.439       .  S
Zr1798     O1801   2.410       .  S
Zr1798     O1802   2.406       .  S
O1799      H1836   0.990       .  S
O1800      H1831   0.990       .  S
O1800      H1845   0.990       .  S
O1802      H1828   0.966       .  S
O1803     Zr1813   2.379       .  S
O1804     Zr1813   2.355       .  S
O1804      H1829   0.964       .  S
C1805      C3017   1.488       .  S
C1806      C2284   1.508       .  S
C1807      C3284   1.494       .  S
O1808      H1844   0.990       .  S
O1809      C1811   1.298       .  A
O1810      C1811   1.280       .  A
C1811      C2304   1.503       .  S
O1812     Zr1813   2.436       .  S
O1812      H1841   0.990       .  S
Zr1813     O1816   2.435       .  S
Zr1813     O1817   2.441       .  S
Zr1813     O1818   2.411       .  S
O1814      C1819   1.281       .  A
O1815      H1832   0.990       .  S
O1815      H1847   0.990       .  S
O1816      H1833   0.990       .  S
O1817      H1837   0.990       .  S
O1817      H1846   0.990       .  S
O1818      C1819   1.280       .  A
C1819      C2197   1.481       .  S
O1820      H1839   0.990       .  S
O1820      H1843   0.990       .  S
O1821      H1835   0.990       .  S
O1821      H1842   0.990       .  S
O1822      C1826   1.282       .  A
O1823      C1826   1.285       .  A
O1824      H1834   0.990       .  S
O1825      H1838   0.990       .  S
C1826      C2217   1.484       .  S
Zr1849     O1850   2.437   1_565  S
Zr1849     O1851   2.458       .  S
Zr1849     O1852   2.566   1_565  S
Zr1849     O1855   2.499   1_565  S
Zr1849     O1857   2.384       .  S
Zr1849     O1858   2.423       .  S
Zr1849     O1859   2.404       .  S
Zr1849     O1860   2.412       .  S
O1850      H1906   0.990       .  S
O1850      H1914   0.990       .  S
O1851      C1871   1.289       .  A
O1852      C1873   1.309       .  A
O1853     Zr1863   2.420       .  S
O1853      C1872   1.277       .  A
O1854     Zr1862   2.376       .  S
O1854      C1873   1.272   1_565  A
O1855      C1872   1.297   1_545  A
O1856     Zr1864   2.425       .  S
O1856      C1871   1.283       .  A
O1857     Zr1862   2.387       .  S
O1857     Zr1864   2.379       .  S
O1858     Zr1863   2.404       .  S
O1858     Zr1864   2.377       .  S
O1858      H1893   0.965       .  S
O1859     Zr1862   2.396       .  S
O1859     Zr1879   2.400       .  S
O1859      H1896   0.965       .  S
O1860     Zr1863   2.413       .  S
O1860     Zr1879   2.366       .  S
Zr1861     O1886   2.437       .  S
Zr1861     O1880   2.433       .  S
Zr1861     O1888   2.413       .  S
Zr1861     O1876   2.414       .  S
Zr1861     O1867   2.400       .  S
Zr1861     O1868   2.404       .  S
Zr1861     O1869   2.373       .  S
Zr1861     O1870   2.372       .  S
Zr1862     O1881   2.437       .  S
Zr1862     O1874   2.435       .  S
Zr1862     O1875   2.396       .  S
Zr1862     O1868   2.383       .  S
Zr1862     O1869   2.378       .  S
Zr1863     O1865   2.436       .  S
Zr1863     O1887   2.436       .  S
Zr1863     O1889   2.498       .  S
Zr1863     O1867   2.379       .  S
Zr1863     O1870   2.370       .  S
Zr1864     O1890   2.435       .  S
Zr1864     O1891   2.435       .  S
Zr1864     O1866   2.437       .  S
Zr1864     O1867   2.404       .  S
Zr1864     O1868   2.397       .  S
O1865      H1902   0.990       .  S
O1866      H1897   0.990       .  S
O1866      H1911   0.990       .  S
O1868      H1894   0.966       .  S
O1869     Zr1879   2.361       .  S
O1870     Zr1879   2.380       .  S
O1870      H1895   0.965       .  S
C1871      C3944   1.483       .  S
C1872      C3564   1.486   1_565  S
C1873      C2184   1.509       .  S
O1874      H1910   0.990       .  S
O1875      C1877   1.277       .  A
O1876      C1877   1.282       .  A
C1877      C2317   1.446       .  S
O1878     Zr1879   2.434   1_545  S
O1878      H1907   0.990       .  S
Zr1879     O1882   2.435       .  S
Zr1879     O1883   2.437       .  S
Zr1879     O1884   2.406       .  S
O1880      C1885   1.284       .  A
O1881      H1898   0.990       .  S
O1881      H1913   0.990       .  S
O1882      H1899   0.990       .  S
O1883      H1903   0.990       .  S
O1883      H1912   0.990       .  S
O1884      C1885   1.280       .  A
C1885      C2224   1.477       .  S
O1886      H1905   0.990       .  S
O1886      H1909   0.990       .  S
O1887      H1901   0.990       .  S
O1887      H1908   0.990       .  S
O1888      C1892   1.282       .  A
O1889      C1892   1.297       .  A
O1890      H1900   0.990       .  S
O1891      H1904   0.990       .  S
C1892      C2157   1.502       .  S
Zr1915     O1916   2.437       .  S
Zr1915     O1917   2.465       .  S
Zr1915     O1918   2.550       .  S
Zr1915     O1921   2.490       .  S
Zr1915     O1923   2.381       .  S
Zr1915     O1924   2.416       .  S
Zr1915     O1925   2.414       .  S
Zr1915     O1926   2.408       .  S
O1916      H1972   0.990       .  S
O1916      H1980   0.990       .  S
O1917      C1937   1.290       .  A
O1918      C1939   1.306       .  A
O1919     Zr1929   2.427       .  S
O1919      C1938   1.281       .  A
O1920     Zr1928   2.393       .  S
O1920      C1939   1.274       .  A
O1921      C1938   1.297       .  A
O1922     Zr1930   2.425       .  S
O1922      C1937   1.284       .  A
O1923     Zr1928   2.392       .  S
O1923     Zr1930   2.378       .  S
O1924     Zr1929   2.398       .  S
O1924     Zr1930   2.379       .  S
O1924      H1959   0.965       .  S
O1925     Zr1928   2.399       .  S
O1925     Zr1945   2.410       .  S
O1925      H1962   0.965       .  S
O1926     Zr1929   2.409       .  S
O1926     Zr1945   2.362       .  S
Zr1927     O1952   2.439       .  S
Zr1927     O1946   2.421       .  S
Zr1927     O1954   2.415       .  S
Zr1927     O1942   2.432       .  S
Zr1927     O1933   2.405       .  S
Zr1927     O1934   2.401       .  S
Zr1927     O1935   2.375       .  S
Zr1927     O1936   2.383       .  S
Zr1928     O1947   2.441       .  S
Zr1928     O1940   2.436       .  S
Zr1928     O1941   2.413       .  S
Zr1928     O1934   2.386       .  S
Zr1928     O1935   2.373       .  S
Zr1929     O1931   2.436       .  S
Zr1929     O1953   2.435       .  S
Zr1929     O1955   2.499       .  S
Zr1929     O1933   2.386       .  S
Zr1929     O1936   2.366       .  S
Zr1930     O1956   2.436       .  S
Zr1930     O1957   2.435       .  S
Zr1930     O1932   2.437       .  S
Zr1930     O1933   2.406       .  S
Zr1930     O1934   2.404       .  S
O1931      H1968   0.990       .  S
O1932      H1963   0.990       .  S
O1932      H1977   0.990       .  S
O1934      H1960   0.967       .  S
O1935     Zr1945   2.359       .  S
O1936     Zr1945   2.381       .  S
O1936      H1961   0.965       .  S
C1937      C2944   1.500       .  S
C1938      C2804   1.484       .  S
C1939      C2177   1.508       .  S
O1940      H1976   0.990       .  S
O1941      C1943   1.281       .  A
O1942      C1943   1.285       .  A
C1943      C2264   1.482       .  S
O1944     Zr1945   2.434       .  S
O1944      H1973   0.990       .  S
Zr1945     O1948   2.436       .  S
Zr1945     O1949   2.436       .  S
Zr1945     O1950   2.412       .  S
O1946      C1951   1.282       .  A
O1947      H1964   0.990       .  S
O1947      H1979   0.990       .  S
O1948      H1965   0.990       .  S
O1949      H1969   0.990       .  S
O1949      H1978   0.990       .  S
O1950      C1951   1.282       .  A
C1951      C2384   1.468       .  S
O1952      H1971   0.990       .  S
O1952      H1975   0.990       .  S
O1953      H1967   0.990       .  S
O1953      H1974   0.990       .  S
O1954      C1958   1.282       .  A
O1955      C1958   1.297       .  A
O1956      H1966   0.990       .  S
O1957      H1970   0.990       .  S
C1958      C2137   1.501       .  S
Zr1981     O1982   2.437       .  S
Zr1981     O1983   2.467       .  S
Zr1981     O1984   2.552       .  S
Zr1981     O1987   2.500       .  S
Zr1981     O1989   2.384       .  S
Zr1981     O1990   2.420       .  S
Zr1981     O1991   2.413       .  S
Zr1981     O1992   2.407       .  S
O1982      H2038   0.990       .  S
O1982      H2046   0.990       .  S
O1983      C2003   1.290       .  A
O1984      C2005   1.307       .  A
O1985     Zr1995   2.427       .  S
O1985      C2004   1.283       .  A
O1986     Zr1994   2.374       .  S
O1986      C2005   1.273       .  A
O1987      C2004   1.299       .  A
O1988     Zr1996   2.438       .  S
O1988      C2003   1.285       .  A
O1989     Zr1994   2.401       .  S
O1989     Zr1996   2.379       .  S
O1990     Zr1995   2.408       .  S
O1990     Zr1996   2.388       .  S
O1990      H2025   0.965       .  S
O1991     Zr1994   2.399       .  S
O1991     Zr2011   2.408       .  S
O1991      H2028   0.967       .  S
O1992     Zr1995   2.405       .  S
O1992     Zr2011   2.369       .  S
Zr1993     O2018   2.436       .  S
Zr1993     O2012   2.409       .  S
Zr1993     O2020   2.406       .  S
Zr1993     O2008   2.413       .  S
Zr1993     O1999   2.403       .  S
Zr1993     O2000   2.398       .  S
Zr1993     O2001   2.373       .  S
Zr1993     O2002   2.380       .  S
Zr1994     O2013   2.439       .  S
Zr1994     O2006   2.435       .  S
Zr1994     O2007   2.420       .  S
Zr1994     O2000   2.385       .  S
Zr1994     O2001   2.369       .  S
Zr1995     O1997   2.437       .  S
Zr1995     O2019   2.436       .  S
Zr1995     O2021   2.515       .  S
Zr1995     O1999   2.386       .  S
Zr1995     O2002   2.365       .  S
Zr1996     O2022   2.436       .  S
Zr1996     O2023   2.436       .  S
Zr1996     O1998   2.440       .  S
Zr1996     O1999   2.416       .  S
Zr1996     O2000   2.407       .  S
O1997      H2034   0.990       .  S
O1998      H2029   0.990       .  S
O1998      H2043   0.990       .  S
O2000      H2026   0.967       .  S
O2001     Zr2011   2.359       .  S
O2002     Zr2011   2.378       .  S
O2002      H2027   0.964       .  S
C2003      C3464   1.496       .  S
C2004      C3717   1.489       .  S
C2005      C2117   1.501       .  S
O2006      H2042   0.990       .  S
O2007      C2009   1.281       .  A
O2008      C2009   1.282       .  A
C2009      C2204   1.482       .  S
O2010     Zr2011   2.434       .  S
O2010      H2039   0.990       .  S
Zr2011     O2014   2.435       .  S
Zr2011     O2015   2.436       .  S
Zr2011     O2016   2.436       .  S
O2012      C2017   1.280       .  A
O2013      H2030   0.990       .  S
O2013      H2045   0.990       .  S
O2014      H2031   0.990       .  S
O2015      H2035   0.989       .  S
O2015      H2044   0.990       .  S
O2016      C2017   1.286       .  A
C2017      C2337   1.464       .  S
O2018      H2037   0.990       .  S
O2018      H2041   0.990       .  S
O2019      H2033   0.989       .  S
O2019      H2040   0.990       .  S
O2020      C2024   1.280       .  A
O2021      C2024   1.299       .  A
O2022      H2032   0.990       .  S
O2023      H2036   0.990       .  S
C2024      C2164   1.510       .  S
Zr2047     O2048   2.438       .  S
Zr2047     O2049   2.461       .  S
Zr2047     O2050   2.551       .  S
Zr2047     O2053   2.501       .  S
Zr2047     O2055   2.387       .  S
Zr2047     O2056   2.415       .  S
Zr2047     O2057   2.412       .  S
Zr2047     O2058   2.408       .  S
O2048      H2104   0.990       .  S
O2048      H2112   0.990       .  S
O2049      C2069   1.289       .  A
O2050      C2071   1.306       .  A
O2051     Zr2061   2.422       .  S
O2051      C2070   1.281       .  A
O2052     Zr2060   2.390       .  S
O2052      C2071   1.274       .  A
O2053      C2070   1.299       .  A
O2054     Zr2062   2.428       .  S
O2054      C2069   1.283       .  A
O2055     Zr2060   2.399       .  S
O2055     Zr2062   2.384       .  S
O2056     Zr2061   2.401       .  S
O2056     Zr2062   2.378       .  S
O2056      H2091   0.965       .  S
O2057     Zr2060   2.406       .  S
O2057     Zr2077   2.404       .  S
O2057      H2094   0.965       .  S
O2058     Zr2061   2.412       .  S
O2058     Zr2077   2.369       .  S
Zr2059     O2084   2.438       .  S
Zr2059     O2078   2.420       .  S
Zr2059     O2086   2.406       .  S
Zr2059     O2074   2.411       .  S
Zr2059     O2065   2.400       .  S
Zr2059     O2066   2.399       .  S
Zr2059     O2067   2.370       .  S
Zr2059     O2068   2.377       .  S
Zr2060     O2079   2.442       .  S
Zr2060     O2072   2.435       .  S
Zr2060     O2073   2.423       .  S
Zr2060     O2066   2.384       .  S
Zr2060     O2067   2.375       .  S
Zr2061     O2063   2.435       .  S
Zr2061     O2085   2.435       .  S
Zr2061     O2087   2.506       .  S
Zr2061     O2065   2.381       .  S
Zr2061     O2068   2.360       .  S
Zr2062     O2088   2.437       .  S
Zr2062     O2089   2.435       .  S
Zr2062     O2064   2.437       .  S
Zr2062     O2065   2.404       .  S
Zr2062     O2066   2.407       .  S
O2063      H2100   0.990       .  S
O2064      H2095   0.990       .  S
O2064      H2109   0.990       .  S
O2066      H2092   0.966       .  S
O2067     Zr2077   2.360       .  S
O2068     Zr2077   2.380       .  S
O2068      H2093   0.965       .  S
C2069      C3297   1.491       .  S
C2070      C3004   1.485       .  S
C2071      C2124   1.505       .  S
O2072      H2108   0.990       .  S
O2073      C2075   1.282       .  A
O2074      C2075   1.281       .  A
C2075      C2397   1.456       .  S
O2076     Zr2077   2.435       .  S
O2076      H2105   0.990       .  S
Zr2077     O2080   2.435       .  S
Zr2077     O2081   2.437       .  S
Zr2077     O2082   2.420       .  S
O2078      C2083   1.282       .  A
O2079      H2096   0.990       .  S
O2079      H2111   0.990       .  S
O2080      H2097   0.990       .  S
O2081      H2101   0.990       .  S
O2081      H2110   0.990       .  S
O2082      C2083   1.283       .  A
C2083      C2244   1.461       .  S
O2084      H2103   0.990       .  S
O2084      H2107   0.990       .  S
O2085      H2099   0.990       .  S
O2085      H2106   0.990       .  S
O2086      C2090   1.281       .  A
O2087      C2090   1.298       .  A
O2088      H2098   0.990       .  S
O2089      H2102   0.990       .  S
C2090      C2144   1.508       .  S
C2113      C2114   1.411       .  A
C2113      C2118   1.413       .  A
C2113      F2131   1.357       .  S
C2114      C2119   1.518       .  S
C2114      C2115   1.412       .  A
C2115      C2116   1.417       .  A
C2115      F2120   1.357       .  S
C2116      C2117   1.412       .  A
C2116      F2132   1.357       .  S
C2117      C2118   1.411       .  A
C2118      F2121   1.358       .  S
C2119      C2122   1.410       .  A
C2119      C2126   1.413       .  A
C2122      C2123   1.416       .  A
C2122      F2127   1.357       .  S
C2123      C2124   1.414       .  A
C2123      F2129   1.357       .  S
C2124      C2125   1.411       .  A
C2125      C2126   1.415       .  A
C2125      F2128   1.357       .  S
C2126      F2130   1.357       .  S
C2133      C2134   1.413       .  A
C2133      C2138   1.412       .  A
C2133      F2151   1.357       .  S
C2134      C2139   1.509       .  S
C2134      C2135   1.409       .  A
C2135      C2136   1.407       .  A
C2135      F2140   1.358       .  S
C2136      C2137   1.412       .  A
C2136      F2152   1.358       .  S
C2137      C2138   1.409       .  A
C2138      F2141   1.357       .  S
C2139      C2142   1.413   1_455  A
C2139      C2146   1.407       .  A
C2142      C2143   1.414       .  A
C2142      F2147   1.357       .  S
C2143      C2144   1.411       .  A
C2143      F2149   1.357       .  S
C2144      C2145   1.416       .  A
C2145      C2146   1.406   1_655  A
C2145      F2148   1.358       .  S
C2146      F2150   1.358       .  S
C2153      C2154   1.409       .  A
C2153      C2158   1.407       .  A
C2153      F2171   1.358       .  S
C2154      C2159   1.513       .  S
C2154      C2155   1.415       .  A
C2155      C2156   1.413       .  A
C2155      F2160   1.357       .  S
C2156      C2157   1.408       .  A
C2156      F2172   1.357       .  S
C2157      C2158   1.413       .  A
C2158      F2161   1.358       .  S
C2159      C2162   1.407       .  A
C2159      C2166   1.415       .  A
C2162      C2163   1.404       .  A
C2162      F2167   1.358       .  S
C2163      C2164   1.415       .  A
C2163      F2169   1.358       .  S
C2164      C2165   1.412       .  A
C2165      C2166   1.417       .  A
C2165      F2168   1.357       .  S
C2166      F2170   1.357       .  S
C2173      C2174   1.411       .  A
C2173      C2178   1.417       .  A
C2173      F2191   1.357       .  S
C2174      C2179   1.525       .  S
C2174      C2175   1.416       .  A
C2175      C2176   1.417       .  A
C2175      F2180   1.358       .  S
C2176      C2177   1.411       .  A
C2176      F2192   1.358       .  S
C2177      C2178   1.413       .  A
C2178      F2181   1.357       .  S
C2179      C2182   1.411       .  A
C2179      C2186   1.416       .  A
C2182      C2183   1.413       .  A
C2182      F2187   1.357       .  S
C2183      C2184   1.413       .  A
C2183      F2189   1.358       .  S
C2184      C2185   1.413       .  A
C2185      C2186   1.422       .  A
C2185      F2188   1.357       .  S
C2186      F2190   1.357       .  S
C2193      C2194   1.404       .  A
C2193      C2198   1.392       .  A
C2193      F2211   1.358       .  S
C2194      C2199   1.474       .  S
C2194      C2195   1.403       .  A
C2195      C2196   1.394       .  A
C2195      F2200   1.358       .  S
C2196      C2197   1.411       .  A
C2196      F2212   1.358       .  S
C2197      C2198   1.412       .  A
C2198      F2201   1.358       .  S
C2199      C2202   1.405       .  A
C2199      C2206   1.403       .  A
C2202      C2203   1.388       .  A
C2202      F2207   1.359       .  S
C2203      C2204   1.409       .  A
C2203      F2209   1.358       .  S
C2204      C2205   1.414       .  A
C2205      C2206   1.398       .  A
C2205      F2208   1.358       .  S
C2206      F2210   1.358       .  S
C2213      C2214   1.401       .  A
C2213      C2218   1.394       .  A
C2213      F2231   1.358       .  S
C2214      C2219   1.471       .  S
C2214      C2215   1.404       .  A
C2215      C2216   1.395       .  A
C2215      F2220   1.358       .  S
C2216      C2217   1.411       .  A
C2216      F2232   1.358       .  S
C2217      C2218   1.413       .  A
C2218      F2221   1.358       .  S
C2219      C2222   1.405       .  A
C2219      C2226   1.403       .  A
C2222      C2223   1.402       .  A
C2222      F2227   1.358       .  S
C2223      C2224   1.411       .  A
C2223      F2229   1.358       .  S
C2224      C2225   1.408       .  A
C2225      C2226   1.385       .  A
C2225      F2228   1.359       .  S
C2226      F2230   1.359       .  S
C2233      C2234   1.402       .  A
C2233      C2238   1.392       .  A
C2233      F2251   1.358       .  S
C2234      C2239   1.469       .  S
C2234      C2235   1.410       .  A
C2235      C2236   1.392       .  A
C2235      F2240   1.358       .  S
C2236      C2237   1.398       .  A
C2236      F2252   1.358       .  S
C2237      C2238   1.405       .  A
C2238      F2241   1.359       .  S
C2239      C2242   1.402       .  A
C2239      C2246   1.408       .  A
C2242      C2243   1.392       .  A
C2242      F2247   1.358       .  S
C2243      C2244   1.406       .  A
C2243      F2249   1.358       .  S
C2244      C2245   1.401       .  A
C2245      C2246   1.393       .  A
C2245      F2248   1.358       .  S
C2246      F2250   1.358       .  S
C2253      C2254   1.404       .  A
C2253      C2258   1.400       .  A
C2253      F2271   1.358       .  S
C2254      C2259   1.473       .  S
C2254      C2255   1.405       .  A
C2255      C2256   1.388       .  A
C2255      F2260   1.359       .  S
C2256      C2257   1.406       .  A
C2256      F2272   1.358       .  S
C2257      C2258   1.410       .  A
C2258      F2261   1.358       .  S
C2259      C2262   1.402       .  A
C2259      C2266   1.404       .  A
C2262      C2263   1.394       .  A
C2262      F2267   1.358       .  S
C2263      C2264   1.412       .  A
C2263      F2269   1.358       .  S
C2264      C2265   1.409       .  A
C2265      C2266   1.396       .  A
C2265      F2268   1.356       .  S
C2266      F2270   1.358       .  S
C2273      C2274   1.412       .  A
C2273      C2278   1.414       .  A
C2273      F2291   1.357       .  S
C2274      C2279   1.522       .  S
C2274      C2275   1.413       .  A
C2275      C2276   1.419       .  A
C2275      F2280   1.357       .  S
C2276      C2277   1.414       .  A
C2276      F2292   1.358       .  S
C2277      C2278   1.412       .  A
C2278      F2281   1.358       .  S
C2279      C2282   1.413       .  A
C2279      C2286   1.412       .  A
C2282      C2283   1.415       .  A
C2282      F2287   1.357       .  S
C2283      C2284   1.411       .  A
C2283      F2289   1.357       .  S
C2284      C2285   1.413       .  A
C2285      C2286   1.418       .  A
C2285      F2288   1.357       .  S
C2286      F2290   1.357       .  S
C2293      C2294   1.407       .  A
C2293      C2298   1.409       .  A
C2293      F2311   1.358       .  S
C2294      C2299   1.517       .  S
C2294      C2295   1.414       .  A
C2295      C2296   1.419       .  A
C2295      F2300   1.357       .  S
C2296      C2297   1.414       .  A
C2296      F2312   1.357       .  S
C2297      C2298   1.419       .  A
C2298      F2301   1.358       .  S
C2299      C2302   1.417       .  A
C2299      C2306   1.409       .  A
C2302      C2303   1.417       .  A
C2302      F2307   1.357       .  S
C2303      C2304   1.409       .  A
C2303      F2309   1.358       .  S
C2304      C2305   1.411       .  A
C2305      C2306   1.408       .  A
C2305      F2308   1.358       .  S
C2306      F2310   1.357       .  S
C2313      C2314   1.410       .  A
C2313      C2318   1.388       .  A
C2313      F2331   1.359       .  S
C2314      C2319   1.466       .  S
C2314      C2315   1.404       .  A
C2315      C2316   1.392       .  A
C2315      F2320   1.358       .  S
C2316      C2317   1.401       .  A
C2316      F2332   1.358       .  S
C2317      C2318   1.397       .  A
C2318      F2321   1.359       .  S
C2319      C2322   1.401       .  A
C2319      C2326   1.406       .  A
C2322      C2323   1.391       .  A
C2322      F2327   1.358       .  S
C2323      C2324   1.408       .  A
C2323      F2329   1.358       .  S
C2324      C2325   1.406       .  A
C2325      C2326   1.390       .  A
C2325      F2328   1.358       .  S
C2326      F2330   1.359       .  S
C2333      C2334   1.407       .  A
C2333      C2338   1.395       .  A
C2333      F2351   1.358       .  S
C2334      C2339   1.472       .  S
C2334      C2335   1.404       .  A
C2335      C2336   1.394       .  A
C2335      F2340   1.358       .  S
C2336      C2337   1.404       .  A
C2336      F2352   1.358       .  S
C2337      C2338   1.403       .  A
C2338      F2341   1.358       .  S
C2339      C2342   1.409       .  A
C2339      C2346   1.405       .  A
C2342      C2343   1.390       .  A
C2342      F2347   1.358       .  S
C2343      C2344   1.397       .  A
C2343      F2349   1.358       .  S
C2344      C2345   1.405       .  A
C2345      C2346   1.395       .  A
C2345      F2348   1.359       .  S
C2346      F2350   1.358       .  S
C2353      C2354   1.406   1_655  A
C2353      C2358   1.403       .  A
C2353      F2371   1.358       .  S
C2354      C2359   1.504       .  S
C2354      C2355   1.412       .  A
C2355      C2356   1.412       .  A
C2355      F2360   1.357       .  S
C2356      C2357   1.409   1_455  A
C2356      F2372   1.357       .  S
C2357      C2358   1.415       .  A
C2358      F2361   1.358       .  S
C2359      C2362   1.412       .  A
C2359      C2366   1.407       .  A
C2362      C2363   1.411       .  A
C2362      F2367   1.358   1_455  S
C2363      C2364   1.410       .  A
C2363      F2369   1.358       .  S
C2364      C2365   1.411       .  A
C2365      C2366   1.405       .  A
C2365      F2368   1.358       .  S
C2366      F2370   1.358       .  S
C2373      C2374   1.404       .  A
C2373      C2378   1.387       .  A
C2373      F2391   1.359       .  S
C2374      C2379   1.456       .  S
C2374      C2375   1.398       .  A
C2375      C2376   1.396       .  A
C2375      F2380   1.357       .  S
C2376      C2377   1.406       .  A
C2376      F2392   1.358       .  S
C2377      C2378   1.397       .  A
C2378      F2381   1.358       .  S
C2379      C2382   1.402       .  A
C2379      C2386   1.396       .  A
C2382      C2383   1.393       .  A
C2382      F2387   1.358       .  S
C2383      C2384   1.405       .  A
C2383      F2389   1.357       .  S
C2384      C2385   1.409       .  A
C2385      C2386   1.390       .  A
C2385      F2388   1.358       .  S
C2386      F2390   1.358       .  S
C2393      C2394   1.408       .  A
C2393      C2398   1.392       .  A
C2393      F2411   1.359       .  S
C2394      C2399   1.467       .  S
C2394      C2395   1.401       .  A
C2395      C2396   1.396       .  A
C2395      F2400   1.358       .  S
C2396      C2397   1.405       .  A
C2396      F2412   1.357       .  S
C2397      C2398   1.398       .  A
C2398      F2401   1.358       .  S
C2399      C2402   1.401       .  A
C2399      C2406   1.405       .  A
C2402      C2403   1.394       .  A
C2402      F2407   1.358       .  S
C2403      C2404   1.407   1_655  A
C2403      F2409   1.358       .  S
C2404      C2405   1.404       .  A
C2405      C2406   1.395   1_455  A
C2405      F2408   1.358       .  S
C2406      F2410   1.358       .  S
C2413      C2414   1.416       .  A
C2413      C2418   1.415       .  A
C2413      F2431   1.357       .  S
C2414      C2419   1.520       .  S
C2414      C2415   1.410       .  A
C2415      C2416   1.413       .  A
C2415      F2420   1.357       .  S
C2416      C2417   1.413       .  A
C2416      F2432   1.358       .  S
C2417      C2418   1.409       .  A
C2418      F2421   1.358       .  S
C2419      C2422   1.410       .  A
C2419      C2426   1.415       .  A
C2422      C2423   1.411       .  A
C2422      F2427   1.358       .  S
C2423      C2424   1.412       .  A
C2423      F2429   1.358       .  S
C2424      C2425   1.412       .  A
C2425      C2426   1.420       .  A
C2425      F2428   1.357       .  S
C2426      F2430   1.357       .  S
C2433      C2434   1.413       .  A
C2433      C2438   1.415       .  A
C2433      F2451   1.357       .  S
C2434      C2439   1.529       .  S
C2434      C2435   1.415       .  A
C2435      C2436   1.422       .  A
C2435      F2440   1.357       .  S
C2436      C2437   1.415       .  A
C2436      F2452   1.357       .  S
C2437      C2438   1.411       .  A
C2438      F2441   1.357       .  S
C2439      C2442   1.414       .  A
C2439      C2446   1.415       .  A
C2442      C2443   1.414       .  A
C2442      F2447   1.357       .  S
C2443      C2444   1.410       .  A
C2443      F2449   1.358       .  S
C2444      C2445   1.414       .  A
C2445      C2446   1.421       .  A
C2445      F2448   1.357       .  S
C2446      F2450   1.357       .  S
C2453      C2454   1.415       .  A
C2453      C2458   1.413       .  A
C2453      F2471   1.357       .  S
C2454      C2459   1.511       .  S
C2454      C2455   1.408       .  A
C2455      C2456   1.406       .  A
C2455      F2460   1.358       .  S
C2456      C2457   1.415       .  A
C2456      F2472   1.358       .  S
C2457      C2458   1.408       .  A
C2458      F2461   1.357       .  S
C2459      C2462   1.406       .  A
C2459      C2466   1.413       .  A
C2462      C2463   1.406       .  A
C2462      F2467   1.358       .  S
C2463      C2464   1.416       .  A
C2463      F2469   1.357       .  S
C2464      C2465   1.415       .  A
C2465      C2466   1.416       .  A
C2465      F2468   1.357       .  S
C2466      F2470   1.358       .  S
C2473      C2474   1.414   1_655  A
C2473      C2478   1.416       .  A
C2473      F2491   1.357       .  S
C2474      C2479   1.511       .  S
C2474      C2475   1.407       .  A
C2475      C2476   1.406   1_455  A
C2475      F2480   1.358       .  S
C2476      C2477   1.416       .  A
C2476      F2492   1.358       .  S
C2477      C2478   1.411       .  A
C2478      F2481   1.357       .  S
C2479      C2482   1.407       .  A
C2479      C2486   1.414       .  A
C2482      C2483   1.407       .  A
C2482      F2487   1.358       .  S
C2483      C2484   1.413       .  A
C2483      F2489   1.358       .  S
C2484      C2485   1.412       .  A
C2485      C2486   1.417       .  A
C2485      F2488   1.357       .  S
C2486      F2490   1.358       .  S
C2493      C2494   1.415       .  A
C2493      C2498   1.423       .  A
C2493      F2511   1.357       .  S
C2494      C2499   1.527       .  S
C2494      C2495   1.412       .  A
C2495      C2496   1.414       .  A
C2495      F2500   1.358       .  S
C2496      C2497   1.413       .  A
C2496      F2512   1.358       .  S
C2497      C2498   1.414       .  A
C2498      F2501   1.357       .  S
C2499      C2502   1.414       .  A
C2499      C2506   1.413       .  A
C2502      C2503   1.422       .  A
C2502      F2507   1.357       .  S
C2503      C2504   1.414       .  A
C2503      F2509   1.357       .  S
C2504      C2505   1.413       .  A
C2505      C2506   1.415       .  A
C2505      F2508   1.358       .  S
C2506      F2510   1.358       .  S
C2513      C2514   1.407       .  A
C2513      C2518   1.392       .  A
C2513      F2531   1.358       .  S
C2514      C2519   1.467       .  S
C2514      C2515   1.402       .  A
C2515      C2516   1.394       .  A
C2515      F2520   1.358       .  S
C2516      C2517   1.405       .  A
C2516      F2532   1.358       .  S
C2517      C2518   1.400       .  A
C2518      F2521   1.359       .  S
C2519      C2522   1.402       .  A
C2519      C2526   1.406       .  A
C2522      C2523   1.395       .  A
C2522      F2527   1.358       .  S
C2523      C2524   1.406       .  A
C2523      F2529   1.358       .  S
C2524      C2525   1.400       .  A
C2525      C2526   1.392       .  A
C2525      F2528   1.358       .  S
C2526      F2530   1.358       .  S
C2533      C2534   1.404       .  A
C2533      C2538   1.385       .  A
C2533      F2551   1.359       .  S
C2534      C2539   1.465       .  S
C2534      C2535   1.402       .  A
C2535      C2536   1.398       .  A
C2535      F2540   1.358       .  S
C2536      C2537   1.409       .  A
C2536      F2552   1.358       .  S
C2537      C2538   1.404       .  A
C2538      F2541   1.359       .  S
C2539      C2542   1.403       .  A
C2539      C2546   1.400       .  A
C2542      C2543   1.395       .  A
C2542      F2547   1.358       .  S
C2543      C2544   1.410       .  A
C2543      F2549   1.358       .  S
C2544      C2545   1.410       .  A
C2545      C2546   1.392       .  A
C2545      F2548   1.358       .  S
C2546      F2550   1.358       .  S
C2553      C2554   1.407       .  A
C2553      C2558   1.394       .  A
C2553      F2571   1.358       .  S
C2554      C2559   1.469       .  S
C2554      C2555   1.402       .  A
C2555      C2556   1.392       .  A
C2555      F2560   1.358       .  S
C2556      C2557   1.403       .  A
C2556      F2572   1.358       .  S
C2557      C2558   1.402       .  A
C2558      F2561   1.359       .  S
C2559      C2562   1.401       .  A
C2559      C2566   1.408       .  A
C2562      C2563   1.393       .  A
C2562      F2567   1.358       .  S
C2563      C2564   1.406       .  A
C2563      F2569   1.358       .  S
C2564      C2565   1.401       .  A
C2565      C2566   1.394       .  A
C2565      F2568   1.358       .  S
C2566      F2570   1.358       .  S
C2573      C2574   1.404       .  A
C2573      C2578   1.394       .  A
C2573      F2591   1.358       .  S
C2574      C2579   1.466       .  S
C2574      C2575   1.400       .  A
C2575      C2576   1.391       .  A
C2575      F2580   1.358       .  S
C2576      C2577   1.412       .  A
C2576      F2592   1.359       .  S
C2577      C2578   1.406       .  A
C2578      F2581   1.358       .  S
C2579      C2582   1.405       .  A
C2579      C2586   1.401       .  A
C2582      C2583   1.389       .  A
C2582      F2587   1.359       .  S
C2583      C2584   1.403       .  A
C2583      F2589   1.359       .  S
C2584      C2585   1.408       .  A
C2585      C2586   1.395       .  A
C2585      F2588   1.358       .  S
C2586      F2590   1.358       .  S
C2593      C2594   1.416       .  A
C2593      C2598   1.424       .  A
C2593      F2611   1.357       .  S
C2594      C2599   1.538       .  S
C2594      C2595   1.417       .  A
C2595      C2596   1.419       .  A
C2595      F2600   1.357       .  S
C2596      C2597   1.412       .  A
C2596      F2612   1.357       .  S
C2597      C2598   1.415       .  A
C2598      F2601   1.357       .  S
C2599      C2602   1.414       .  A
C2599      C2606   1.419       .  A
C2602      C2603   1.416       .  A
C2602      F2607   1.357       .  S
C2603      C2604   1.414       .  A
C2603      F2609   1.358       .  S
C2604      C2605   1.415       .  A
C2605      C2606   1.427       .  A
C2605      F2608   1.357       .  S
C2606      F2610   1.357       .  S
C2613      C2614   1.412       .  A
C2613      C2618   1.413       .  A
C2613      F2631   1.357       .  S
C2614      C2619   1.506       .  S
C2614      C2615   1.407       .  A
C2615      C2616   1.406       .  A
C2615      F2620   1.358       .  S
C2616      C2617   1.415       .  A
C2616      F2632   1.358       .  S
C2617      C2618   1.411       .  A
C2618      F2621   1.357       .  S
C2619      C2622   1.413       .  A
C2619      C2626   1.406   1_455  A
C2622      C2623   1.413       .  A
C2622      F2627   1.357       .  S
C2623      C2624   1.409   1_455  A
C2623      F2629   1.357       .  S
C2624      C2625   1.414       .  A
C2625      C2626   1.403       .  A
C2625      F2628   1.358       .  S
C2626      F2630   1.358       .  S
C2633      C2634   1.399       .  A
C2633      C2638   1.391       .  A
C2633      F2651   1.358       .  S
C2634      C2639   1.461       .  S
C2634      C2635   1.403       .  A
C2635      C2636   1.391   1_655  A
C2635      F2640   1.359       .  S
C2636      C2637   1.405       .  A
C2636      F2652   1.356       .  S
C2637      C2638   1.409   1_455  A
C2638      F2641   1.358       .  S
C2639      C2642   1.402       .  A
C2639      C2646   1.404       .  A
C2642      C2643   1.397       .  A
C2642      F2647   1.357       .  S
C2643      C2644   1.407       .  A
C2643      F2649   1.358       .  S
C2644      C2645   1.399       .  A
C2645      C2646   1.384       .  A
C2645      F2648   1.359       .  S
C2646      F2650   1.359       .  S
C2653      C2654   1.405       .  A
C2653      C2658   1.388       .  A
C2653      F2671   1.359       .  S
C2654      C2659   1.477       .  S
C2654      C2655   1.405       .  A
C2655      C2656   1.401       .  A
C2655      F2660   1.358       .  S
C2656      C2657   1.410       .  A
C2656      F2672   1.358       .  S
C2657      C2658   1.408       .  A
C2658      F2661   1.359       .  S
C2659      C2662   1.403       .  A
C2659      C2666   1.404       .  A
C2662      C2663   1.395       .  A
C2662      F2667   1.358       .  S
C2663      C2664   1.411       .  A
C2663      F2669   1.356       .  S
C2664      C2665   1.413       .  A
C2665      C2666   1.398       .  A
C2665      F2668   1.357       .  S
C2666      F2670   1.358       .  S
C2673      C2674   1.408       .  A
C2673      C2678   1.397       .  A
C2673      F2691   1.358       .  S
C2674      C2679   1.479       .  S
C2674      C2675   1.403       .  A
C2675      C2676   1.398       .  A
C2675      F2680   1.358       .  S
C2676      C2677   1.410       .  A
C2676      F2692   1.359       .  S
C2677      C2678   1.403       .  A
C2678      F2681   1.358       .  S
C2679      C2682   1.405       .  A
C2679      C2686   1.409       .  A
C2682      C2683   1.396       .  A
C2682      F2687   1.358       .  S
C2683      C2684   1.403       .  A
C2683      F2689   1.358       .  S
C2684      C2685   1.402       .  A
C2685      C2686   1.397       .  A
C2685      F2688   1.359       .  S
C2686      F2690   1.358       .  S
C2693      C2694   1.407       .  A
C2693      C2698   1.406       .  A
C2693      F2711   1.358       .  S
C2694      C2699   1.511       .  S
C2694      C2695   1.414       .  A
C2695      C2696   1.416       .  A
C2695      F2700   1.357       .  S
C2696      C2697   1.410       .  A
C2696      F2712   1.357       .  S
C2697      C2698   1.415       .  A
C2698      F2701   1.358       .  S
C2699      C2702   1.408       .  A
C2699      C2706   1.414       .  A
C2702      C2703   1.408       .  A
C2702      F2707   1.358       .  S
C2703      C2704   1.415       .  A
C2703      F2709   1.358       .  S
C2704      C2705   1.411       .  A
C2705      C2706   1.415       .  A
C2705      F2708   1.357       .  S
C2706      F2710   1.357       .  S
C2713      C2714   1.398       .  A
C2713      C2718   1.389       .  A
C2713      F2731   1.358       .  S
C2714      C2719   1.464       .  S
C2714      C2715   1.406       .  A
C2715      C2716   1.396       .  A
C2715      F2720   1.358       .  S
C2716      C2717   1.404       .  A
C2716      F2732   1.358       .  S
C2717      C2718   1.411       .  A
C2718      F2721   1.359       .  S
C2719      C2722   1.401       .  A
C2719      C2726   1.404       .  A
C2722      C2723   1.399       .  A
C2722      F2727   1.358       .  S
C2723      C2724   1.409       .  A
C2723      F2729   1.358       .  S
C2724      C2725   1.403       .  A
C2725      C2726   1.386       .  A
C2725      F2728   1.358       .  S
C2726      F2730   1.359       .  S
C2733      C2734   1.416       .  A
C2733      C2738   1.418       .  A
C2733      F2751   1.357       .  S
C2734      C2739   1.526       .  S
C2734      C2735   1.411       .  A
C2735      C2736   1.416       .  A
C2735      F2740   1.357       .  S
C2736      C2737   1.415       .  A
C2736      F2752   1.357       .  S
C2737      C2738   1.410       .  A
C2738      F2741   1.357       .  S
C2739      C2742   1.417       .  A
C2739      C2746   1.411       .  A
C2742      C2743   1.423       .  A
C2742      F2747   1.357       .  S
C2743      C2744   1.412       .  A
C2743      F2749   1.357       .  S
C2744      C2745   1.412       .  A
C2745      C2746   1.412       .  A
C2745      F2748   1.358       .  S
C2746      F2750   1.358       .  S
C2753      C2754   1.405       .  A
C2753      C2758   1.400   1_556  A
C2753      F2771   1.358       .  S
C2754      C2759   1.498       .  S
C2754      C2755   1.410   1_556  A
C2755      C2756   1.407       .  A
C2755      F2760   1.357       .  S
C2756      C2757   1.412       .  A
C2756      F2772   1.358       .  S
C2757      C2758   1.415       .  A
C2758      F2761   1.358       .  S
C2759      C2762   1.409       .  A
C2759      C2766   1.408   1_455  A
C2762      C2763   1.405   1_455  A
C2762      F2767   1.357       .  S
C2763      C2764   1.407       .  A
C2763      F2769   1.357       .  S
C2764      C2765   1.412       .  A
C2765      C2766   1.406       .  A
C2765      F2768   1.358       .  S
C2766      F2770   1.358   1_556  S
C2773      C2774   1.406       .  A
C2773      C2778   1.404       .  A
C2773      F2791   1.358       .  S
C2774      C2779   1.505   1_556  S
C2774      C2775   1.413       .  A
C2775      C2776   1.414       .  A
C2775      F2780   1.358   1_556  S
C2776      C2777   1.411       .  A
C2776      F2792   1.357       .  S
C2777      C2778   1.411       .  A
C2778      F2781   1.358       .  S
C2779      C2782   1.411       .  A
C2779      C2786   1.409       .  A
C2782      C2783   1.409       .  A
C2782      F2787   1.358   1_554  S
C2783      C2784   1.411       .  A
C2783      F2789   1.358       .  S
C2784      C2785   1.411       .  A
C2785      C2786   1.406       .  A
C2785      F2788   1.358       .  S
C2786      F2790   1.357       .  S
C2793      C2794   1.411       .  A
C2793      C2798   1.409       .  A
C2793      F2811   1.357       .  S
C2794      C2799   1.499       .  S
C2794      C2795   1.404       .  A
C2795      C2796   1.398       .  A
C2795      F2800   1.358       .  S
C2796      C2797   1.418       .  A
C2796      F2812   1.358       .  S
C2797      C2798   1.411       .  A
C2798      F2801   1.357       .  S
C2799      C2802   1.410       .  A
C2799      C2806   1.410       .  A
C2802      C2803   1.405       .  A
C2802      F2807   1.358       .  S
C2803      C2804   1.409       .  A
C2803      F2809   1.358       .  S
C2804      C2805   1.406       .  A
C2805      C2806   1.402       .  A
C2805      F2808   1.357       .  S
C2806      F2810   1.358       .  S
C2813      C2814   1.407       .  A
C2813      C2818   1.403       .  A
C2813      F2831   1.358       .  S
C2814      C2819   1.499       .  S
C2814      C2815   1.410       .  A
C2815      C2816   1.411       .  A
C2815      F2820   1.357       .  S
C2816      C2817   1.410       .  A
C2816      F2832   1.357       .  S
C2817      C2818   1.410       .  A
C2818      F2821   1.358       .  S
C2819      C2822   1.408       .  A
C2819      C2826   1.408       .  A
C2822      C2823   1.408       .  A
C2822      F2827   1.357       .  S
C2823      C2824   1.411       .  A
C2823      F2829   1.358       .  S
C2824      C2825   1.412       .  A
C2825      C2826   1.405       .  A
C2825      F2828   1.358       .  S
C2826      F2830   1.358       .  S
C2833      C2834   1.418       .  A
C2833      C2838   1.417       .  A
C2833      F2851   1.357       .  S
C2834      C2839   1.528       .  S
C2834      C2835   1.412       .  A
C2835      C2836   1.416       .  A
C2835      F2840   1.357       .  S
C2836      C2837   1.415       .  A
C2836      F2852   1.358       .  S
C2837      C2838   1.409       .  A
C2838      F2841   1.357       .  S
C2839      C2842   1.411       .  A
C2839      C2846   1.419       .  A
C2842      C2843   1.410       .  A
C2842      F2847   1.357       .  S
C2843      C2844   1.413       .  A
C2843      F2849   1.358       .  S
C2844      C2845   1.412       .  A
C2845      C2846   1.423       .  A
C2845      F2848   1.357       .  S
C2846      F2850   1.357       .  S
C2853      C2854   1.406   1_556  A
C2853      C2858   1.400   1_556  A
C2853      F2871   1.358       .  S
C2854      C2859   1.509   1_554  S
C2854      C2855   1.415       .  A
C2855      C2856   1.412       .  A
C2855      F2860   1.357   1_545  S
C2856      C2857   1.410       .  A
C2856      F2872   1.357       .  S
C2857      C2858   1.419       .  A
C2858      F2861   1.358       .  S
C2859      C2862   1.412       .  A
C2859      C2866   1.413       .  A
C2862      C2863   1.409       .  A
C2862      F2867   1.357   1_556  S
C2863      C2864   1.408       .  A
C2863      F2869   1.357   1_545  S
C2864      C2865   1.406       .  A
C2865      C2866   1.406       .  A
C2865      F2868   1.358       .  S
C2866      F2870   1.358       .  S
C2873      C2874   1.405       .  A
C2873      C2878   1.402       .  A
C2873      F2891   1.358   1_556  S
C2874      C2879   1.489   1_556  S
C2874      C2875   1.406       .  A
C2875      C2876   1.405       .  A
C2875      F2880   1.357       .  S
C2876      C2877   1.409       .  A
C2876      F2892   1.358       .  S
C2877      C2878   1.410       .  A
C2878      F2881   1.358       .  S
C2879      C2882   1.405       .  A
C2879      C2886   1.403       .  A
C2882      C2883   1.408       .  A
C2882      F2887   1.358   1_554  S
C2883      C2884   1.417       .  A
C2883      F2889   1.358       .  S
C2884      C2885   1.413       .  A
C2885      C2886   1.399       .  A
C2885      F2888   1.358       .  S
C2886      F2890   1.358       .  S
C2893      C2894   1.401       .  A
C2893      C2898   1.392       .  A
C2893      F2911   1.358       .  S
C2894      C2899   1.474       .  S
C2894      C2895   1.409       .  A
C2895      C2896   1.398       .  A
C2895      F2900   1.358       .  S
C2896      C2897   1.403       .  A
C2896      F2912   1.358       .  S
C2897      C2898   1.405       .  A
C2898      F2901   1.358       .  S
C2899      C2902   1.409       .  A
C2899      C2906   1.403       .  A
C2902      C2903   1.394       .  A
C2902      F2907   1.358       .  S
C2903      C2904   1.399       .  A
C2903      F2909   1.358       .  S
C2904      C2905   1.405       .  A
C2905      C2906   1.396       .  A
C2905      F2908   1.358       .  S
C2906      F2910   1.358       .  S
C2913      C2914   1.406       .  A
C2913      C2918   1.400       .  A
C2913      F2931   1.358       .  S
C2914      C2919   1.502       .  S
C2914      C2915   1.412       .  A
C2915      C2916   1.410       .  A
C2915      F2920   1.358       .  S
C2916      C2917   1.413       .  A
C2916      F2932   1.357       .  S
C2917      C2918   1.415       .  A
C2918      F2921   1.358       .  S
C2919      C2922   1.409       .  A
C2919      C2926   1.412       .  A
C2922      C2923   1.402       .  A
C2922      F2927   1.358       .  S
C2923      C2924   1.405       .  A
C2923      F2929   1.355       .  S
C2924      C2925   1.407       .  A
C2925      C2926   1.408       .  A
C2925      F2928   1.358       .  S
C2926      F2930   1.358       .  S
C2933      C2934   1.402       .  A
C2933      C2938   1.398   1_545  A
C2933      F2951   1.358       .  S
C2934      C2939   1.485       .  S
C2934      C2935   1.404   1_545  A
C2935      C2936   1.407       .  A
C2935      F2940   1.357       .  S
C2936      C2937   1.415       .  A
C2936      F2952   1.358       .  S
C2937      C2938   1.415       .  A
C2938      F2941   1.358       .  S
C2939      C2942   1.401       .  A
C2939      C2946   1.404       .  A
C2942      C2943   1.397       .  A
C2942      F2947   1.358   1_545  S
C2943      C2944   1.415       .  A
C2943      F2949   1.358       .  S
C2944      C2945   1.415       .  A
C2945      C2946   1.408       .  A
C2945      F2948   1.357       .  S
C2946      F2950   1.358       .  S
C2953      C2954   1.402       .  A
C2953      C2958   1.397       .  A
C2953      F2971   1.358       .  S
C2954      C2959   1.465       .  S
C2954      C2955   1.403       .  A
C2955      C2956   1.383       .  A
C2955      F2960   1.359       .  S
C2956      C2957   1.406       .  A
C2956      F2972   1.358       .  S
C2957      C2958   1.411       .  A
C2958      F2961   1.358       .  S
C2959      C2962   1.401       .  A
C2959      C2966   1.402       .  A
C2962      C2963   1.389       .  A
C2962      F2967   1.359       .  S
C2963      C2964   1.413       .  A
C2963      F2969   1.359       .  S
C2964      C2965   1.410       .  A
C2965      C2966   1.392       .  A
C2965      F2968   1.358       .  S
C2966      F2970   1.358       .  S
C2973      C2974   1.417       .  A
C2973      C2978   1.420       .  A
C2973      F2991   1.357       .  S
C2974      C2979   1.528       .  S
C2974      C2975   1.414       .  A
C2975      C2976   1.413   1_565  A
C2975      F2980   1.357       .  S
C2976      C2977   1.412   1_545  A
C2976      F2992   1.358       .  S
C2977      C2978   1.411       .  A
C2978      F2981   1.357       .  S
C2979      C2982   1.417       .  A
C2979      C2986   1.413       .  A
C2982      C2983   1.418       .  A
C2982      F2987   1.357       .  S
C2983      C2984   1.410       .  A
C2983      F2989   1.357       .  S
C2984      C2985   1.413       .  A
C2985      C2986   1.416       .  A
C2985      F2988   1.357       .  S
C2986      F2990   1.357       .  S
C2993      C2994   1.404       .  A
C2993      C2998   1.400       .  A
C2993      F3011   1.358       .  S
C2994      C2999   1.501       .  S
C2994      C2995   1.412       .  A
C2995      C2996   1.410       .  A
C2995      F3000   1.358       .  S
C2996      C2997   1.412       .  A
C2996      F3012   1.358       .  S
C2997      C2998   1.417       .  A
C2998      F3001   1.358       .  S
C2999      C3002   1.411       .  A
C2999      C3006   1.410       .  A
C3002      C3003   1.404       .  A
C3002      F3007   1.358       .  S
C3003      C3004   1.406       .  A
C3003      F3009   1.357       .  S
C3004      C3005   1.408       .  A
C3005      C3006   1.406       .  A
C3005      F3008   1.358       .  S
C3006      F3010   1.358       .  S
C3013      C3014   1.409       .  A
C3013      C3018   1.404   1_545  A
C3013      F3031   1.358       .  S
C3014      C3019   1.496       .  S
C3014      C3015   1.408   1_545  A
C3015      C3016   1.404       .  A
C3015      F3020   1.358       .  S
C3016      C3017   1.409       .  A
C3016      F3032   1.358       .  S
C3017      C3018   1.408       .  A
C3018      F3021   1.358   1_565  S
C3019      C3022   1.409       .  A
C3019      C3026   1.408       .  A
C3022      C3023   1.407       .  A
C3022      F3027   1.357       .  S
C3023      C3024   1.408       .  A
C3023      F3029   1.357       .  S
C3024      C3025   1.410       .  A
C3025      C3026   1.402       .  A
C3025      F3028   1.358       .  S
C3026      F3030   1.358   1_545  S
C3033      C3034   1.414       .  A
C3033      C3038   1.417       .  A
C3033      F3051   1.358       .  S
C3034      C3039   1.506       .  S
C3034      C3035   1.403       .  A
C3035      C3036   1.400       .  A
C3035      F3040   1.358       .  S
C3036      C3037   1.420       .  A
C3036      F3052   1.358       .  S
C3037      C3038   1.415       .  A
C3038      F3041   1.357       .  S
C3039      C3042   1.408       .  A
C3039      C3046   1.414       .  A
C3042      C3043   1.407       .  A
C3042      F3047   1.357       .  S
C3043      C3044   1.410       .  A
C3043      F3049   1.357       .  S
C3044      C3045   1.408       .  A
C3045      C3046   1.411       .  A
C3045      F3048   1.358       .  S
C3046      F3050   1.358       .  S
C3053      C3054   1.409       .  A
C3053      C3058   1.394       .  A
C3053      F3071   1.358       .  S
C3054      C3059   1.474       .  S
C3054      C3055   1.402       .  A
C3055      C3056   1.393       .  A
C3055      F3060   1.358       .  S
C3056      C3057   1.410       .  A
C3056      F3072   1.359       .  S
C3057      C3058   1.402       .  A
C3058      F3061   1.358       .  S
C3059      C3062   1.410       .  A
C3059      C3066   1.404       .  A
C3062      C3063   1.392       .  A
C3062      F3067   1.358       .  S
C3063      C3064   1.398       .  A
C3063      F3069   1.358       .  S
C3064      C3065   1.403       .  A
C3065      C3066   1.395       .  A
C3065      F3068   1.358       .  S
C3066      F3070   1.358       .  S
C3073      C3074   1.407   1_666  A
C3073      C3078   1.403   1_556  A
C3073      F3091   1.358   1_655  S
C3074      C3079   1.515   1_554  S
C3074      C3075   1.417   1_455  A
C3075      C3076   1.415       .  A
C3075      F3080   1.357   1_655  S
C3076      C3077   1.412   1_545  A
C3076      F3092   1.357       .  S
C3077      C3078   1.418       .  A
C3078      F3081   1.357       .  S
C3079      C3082   1.416       .  A
C3079      C3086   1.413       .  A
C3082      C3083   1.408       .  A
C3082      F3087   1.357   1_545  S
C3083      C3084   1.405       .  A
C3083      F3089   1.358       .  S
C3084      C3085   1.410       .  A
C3085      C3086   1.410       .  A
C3085      F3088   1.358       .  S
C3086      F3090   1.357   1_556  S
C3093      C3094   1.408       .  A
C3093      C3098   1.402       .  A
C3093      F3111   1.358       .  S
C3094      C3099   1.495   1_556  S
C3094      C3095   1.410   1_565  A
C3095      C3096   1.405       .  A
C3095      F3100   1.357   1_556  S
C3096      C3097   1.406   1_545  A
C3096      F3112   1.357       .  S
C3097      C3098   1.410       .  A
C3098      F3101   1.359       .  S
C3099      C3102   1.409   1_565  A
C3099      C3106   1.408       .  A
C3102      C3103   1.406       .  A
C3102      F3107   1.357   1_554  S
C3103      C3104   1.410   1_545  A
C3103      F3109   1.358       .  S
C3104      C3105   1.409       .  A
C3105      C3106   1.401       .  A
C3105      F3108   1.358       .  S
C3106      F3110   1.358       .  S
C3113      C3114   1.403       .  A
C3113      C3118   1.402       .  A
C3113      F3131   1.357       .  S
C3114      C3119   1.466       .  S
C3114      C3115   1.403       .  A
C3115      C3116   1.383       .  A
C3115      F3120   1.359       .  S
C3116      C3117   1.402       .  A
C3116      F3132   1.358       .  S
C3117      C3118   1.410       .  A
C3118      F3121   1.358       .  S
C3119      C3122   1.404       .  A
C3119      C3126   1.399       .  A
C3122      C3123   1.395       .  A
C3122      F3127   1.358       .  S
C3123      C3124   1.408       .  A
C3123      F3129   1.358       .  S
C3124      C3125   1.412       .  A
C3125      C3126   1.394       .  A
C3125      F3128   1.358       .  S
C3126      F3130   1.358       .  S
C3133      C3134   1.407       .  A
C3133      C3138   1.412       .  A
C3133      F3151   1.357       .  S
C3134      C3139   1.520       .  S
C3134      C3135   1.416       .  A
C3135      C3136   1.420       .  A
C3135      F3140   1.357       .  S
C3136      C3137   1.410       .  A
C3136      F3152   1.357       .  S
C3137      C3138   1.416       .  A
C3138      F3141   1.358       .  S
C3139      C3142   1.408       .  A
C3139      C3146   1.416       .  A
C3142      C3143   1.412       .  A
C3142      F3147   1.357       .  S
C3143      C3144   1.414       .  A
C3143      F3149   1.358       .  S
C3144      C3145   1.412       .  A
C3145      C3146   1.420       .  A
C3145      F3148   1.357       .  S
C3146      F3150   1.357       .  S
C3153      C3154   1.412       .  A
C3153      C3158   1.409       .  A
C3153      F3171   1.357       .  S
C3154      C3159   1.501       .  S
C3154      C3155   1.407   1_455  A
C3155      C3156   1.406       .  A
C3155      F3160   1.358       .  S
C3156      C3157   1.411       .  A
C3156      F3172   1.358       .  S
C3157      C3158   1.407   1_655  A
C3158      F3161   1.358       .  S
C3159      C3162   1.402       .  A
C3159      C3166   1.412       .  A
C3162      C3163   1.399       .  A
C3162      F3167   1.359       .  S
C3163      C3164   1.418       .  A
C3163      F3169   1.358       .  S
C3164      C3165   1.412       .  A
C3165      C3166   1.417       .  A
C3165      F3168   1.357       .  S
C3166      F3170   1.357       .  S
C3173      C3174   1.413       .  A
C3173      C3178   1.405       .  A
C3173      F3191   1.358       .  S
C3174      C3179   1.504   1_554  S
C3174      C3175   1.411   1_554  A
C3175      C3176   1.402   1_556  A
C3175      F3180   1.357       .  S
C3176      C3177   1.407       .  A
C3176      F3192   1.358   1_554  S
C3177      C3178   1.406       .  A
C3178      F3181   1.357       .  S
C3179      C3182   1.406       .  A
C3179      C3186   1.416       .  A
C3182      C3183   1.397       .  A
C3182      F3187   1.358   1_556  S
C3183      C3184   1.416       .  A
C3183      F3189   1.359       .  S
C3184      C3185   1.407       .  A
C3185      C3186   1.410       .  A
C3185      F3188   1.357       .  S
C3186      F3190   1.357       .  S
C3193      C3194   1.404       .  A
C3193      C3198   1.399       .  A
C3193      F3211   1.358       .  S
C3194      C3199   1.485   1_556  S
C3194      C3195   1.405       .  A
C3195      C3196   1.404       .  A
C3195      F3200   1.357       .  S
C3196      C3197   1.411       .  A
C3196      F3212   1.357       .  S
C3197      C3198   1.411       .  A
C3198      F3201   1.359       .  S
C3199      C3202   1.407       .  A
C3199      C3206   1.404       .  A
C3202      C3203   1.403       .  A
C3202      F3207   1.358       .  S
C3203      C3204   1.409       .  A
C3203      F3209   1.358       .  S
C3204      C3205   1.408       .  A
C3205      C3206   1.402       .  A
C3205      F3208   1.358       .  S
C3206      F3210   1.357   1_554  S
C3213      C3214   1.405       .  A
C3213      C3218   1.401       .  A
C3213      F3231   1.358       .  S
C3214      C3219   1.502       .  S
C3214      C3215   1.412       .  A
C3215      C3216   1.412       .  A
C3215      F3220   1.357       .  S
C3216      C3217   1.413       .  A
C3216      F3232   1.358       .  S
C3217      C3218   1.414       .  A
C3218      F3221   1.358       .  S
C3219      C3222   1.406       .  A
C3219      C3226   1.412       .  A
C3222      C3223   1.405       .  A
C3222      F3227   1.358       .  S
C3223      C3224   1.412       .  A
C3223      F3229   1.358       .  S
C3224      C3225   1.409       .  A
C3225      C3226   1.411       .  A
C3225      F3228   1.357       .  S
C3226      F3230   1.358       .  S
C3233      C3234   1.406       .  A
C3233      C3238   1.389       .  A
C3233      F3251   1.359       .  S
C3234      C3239   1.463       .  S
C3234      C3235   1.401       .  A
C3235      C3236   1.394       .  A
C3235      F3240   1.358       .  S
C3236      C3237   1.407       .  A
C3236      F3252   1.358       .  S
C3237      C3238   1.401       .  A
C3238      F3241   1.358       .  S
C3239      C3242   1.407       .  A
C3239      C3246   1.400       .  A
C3242      C3243   1.394       .  A
C3242      F3247   1.358       .  S
C3243      C3244   1.402       .  A
C3243      F3249   1.358       .  S
C3244      C3245   1.405       .  A
C3245      C3246   1.387       .  A
C3245      F3248   1.358       .  S
C3246      F3250   1.358       .  S
C3253      C3254   1.401       .  A
C3253      C3258   1.397       .  A
C3253      F3271   1.358       .  S
C3254      C3259   1.466       .  S
C3254      C3255   1.406       .  A
C3255      C3256   1.387       .  A
C3255      F3260   1.359       .  S
C3256      C3257   1.404       .  A
C3256      F3272   1.359       .  S
C3257      C3258   1.408       .  A
C3258      F3261   1.357       .  S
C3259      C3262   1.402       .  A
C3259      C3266   1.401       .  A
C3262      C3263   1.391       .  A
C3262      F3267   1.358       .  S
C3263      C3264   1.410       .  A
C3263      F3269   1.358       .  S
C3264      C3265   1.409       .  A
C3265      C3266   1.392       .  A
C3265      F3268   1.358       .  S
C3266      F3270   1.358       .  S
C3273      C3274   1.409       .  A
C3273      C3278   1.401       .  A
C3273      F3291   1.358       .  S
C3274      C3279   1.493       .  S
C3274      C3275   1.410       .  A
C3275      C3276   1.401       .  A
C3275      F3280   1.357       .  S
C3276      C3277   1.403       .  A
C3276      F3292   1.358       .  S
C3277      C3278   1.405       .  A
C3278      F3281   1.357       .  S
C3279      C3282   1.405       .  A
C3279      C3286   1.409       .  A
C3282      C3283   1.398       .  A
C3282      F3287   1.358       .  S
C3283      C3284   1.414       .  A
C3283      F3289   1.358       .  S
C3284      C3285   1.411       .  A
C3285      C3286   1.404       .  A
C3285      F3288   1.357       .  S
C3286      F3290   1.358       .  S
C3293      C3294   1.405       .  A
C3293      C3298   1.404       .  A
C3293      F3311   1.357       .  S
C3294      C3299   1.488       .  S
C3294      C3295   1.406       .  A
C3295      C3296   1.403       .  A
C3295      F3300   1.358       .  S
C3296      C3297   1.411       .  A
C3296      F3312   1.358       .  S
C3297      C3298   1.411       .  A
C3298      F3301   1.358       .  S
C3299      C3302   1.406       .  A
C3299      C3306   1.404       .  A
C3302      C3303   1.407       .  A
C3302      F3307   1.357       .  S
C3303      C3304   1.413       .  A
C3303      F3309   1.358       .  S
C3304      C3305   1.411       .  A
C3305      C3306   1.399       .  A
C3305      F3308   1.358       .  S
C3306      F3310   1.358       .  S
C3313      C3314   1.413       .  A
C3313      C3318   1.414       .  A
C3313      F3331   1.357       .  S
C3314      C3319   1.503       .  S
C3314      C3315   1.404       .  A
C3315      C3316   1.402       .  A
C3315      F3320   1.358       .  S
C3316      C3317   1.414       .  A
C3316      F3332   1.358       .  S
C3317      C3318   1.411       .  A
C3318      F3321   1.357       .  S
C3319      C3322   1.412   1_455  A
C3319      C3326   1.405       .  A
C3322      C3323   1.413       .  A
C3322      F3327   1.358       .  S
C3323      C3324   1.410       .  A
C3323      F3329   1.357       .  S
C3324      C3325   1.414       .  A
C3325      C3326   1.405   1_655  A
C3325      F3328   1.358       .  S
C3326      F3330   1.358       .  S
C3333      C3334   1.402       .  A
C3333      C3338   1.394       .  A
C3333      F3351   1.358       .  S
C3334      C3339   1.464       .  S
C3334      C3335   1.400       .  A
C3335      C3336   1.391       .  A
C3335      F3340   1.358       .  S
C3336      C3337   1.413       .  A
C3336      F3352   1.358   1_655  S
C3337      C3338   1.411       .  A
C3338      F3341   1.358       .  S
C3339      C3342   1.404       .  A
C3339      C3346   1.400       .  A
C3342      C3343   1.384       .  A
C3342      F3347   1.359       .  S
C3343      C3344   1.404       .  A
C3343      F3349   1.359       .  S
C3344      C3345   1.412       .  A
C3345      C3346   1.398       .  A
C3345      F3348   1.358       .  S
C3346      F3350   1.358       .  S
C3353      C3354   1.401       .  A
C3353      C3358   1.391       .  A
C3353      F3371   1.358       .  S
C3354      C3359   1.468       .  S
C3354      C3355   1.409       .  A
C3355      C3356   1.392       .  A
C3355      F3360   1.358       .  S
C3356      C3357   1.399       .  A
C3356      F3372   1.358       .  S
C3357      C3358   1.406       .  A
C3358      F3361   1.359       .  S
C3359      C3362   1.402       .  A
C3359      C3366   1.409       .  A
C3362      C3363   1.392       .  A
C3362      F3367   1.358       .  S
C3363      C3364   1.405       .  A
C3363      F3369   1.358       .  S
C3364      C3365   1.400       .  A
C3365      C3366   1.390       .  A
C3365      F3368   1.359       .  S
C3366      F3370   1.358       .  S
C3373      C3374   1.414       .  A
C3373      C3378   1.412       .  A
C3373      F3391   1.357       .  S
C3374      C3379   1.521       .  S
C3374      C3375   1.412       .  A
C3375      C3376   1.417       .  A
C3375      F3380   1.357       .  S
C3376      C3377   1.414       .  A
C3376      F3392   1.358       .  S
C3377      C3378   1.408       .  A
C3378      F3381   1.357       .  S
C3379      C3382   1.416       .  A
C3379      C3386   1.411       .  A
C3382      C3383   1.422       .  A
C3382      F3387   1.357       .  S
C3383      C3384   1.413       .  A
C3383      F3389   1.357       .  S
C3384      C3385   1.410       .  A
C3385      C3386   1.407       .  A
C3385      F3388   1.358       .  S
C3386      F3390   1.358       .  S
C3393      C3394   1.406       .  A
C3393      C3398   1.399       .  A
C3393      F3411   1.358       .  S
C3394      C3399   1.501       .  S
C3394      C3395   1.412       .  A
C3395      C3396   1.407       .  A
C3395      F3400   1.358       .  S
C3396      C3397   1.411       .  A
C3396      F3412   1.357       .  S
C3397      C3398   1.416       .  A
C3398      F3401   1.358       .  S
C3399      C3402   1.412       .  A
C3399      C3406   1.412       .  A
C3402      C3403   1.402       .  A
C3402      F3407   1.357       .  S
C3403      C3404   1.406       .  A
C3403      F3409   1.358       .  S
C3404      C3405   1.406       .  A
C3405      C3406   1.403       .  A
C3405      F3408   1.358       .  S
C3406      F3410   1.357       .  S
C3413      C3414   1.406       .  A
C3413      C3418   1.398       .  A
C3413      F3431   1.358       .  S
C3414      C3419   1.481       .  S
C3414      C3415   1.404       .  A
C3415      C3416   1.400       .  A
C3415      F3420   1.358       .  S
C3416      C3417   1.412       .  A
C3416      F3432   1.358       .  S
C3417      C3418   1.407       .  A
C3418      F3421   1.358       .  S
C3419      C3422   1.405       .  A
C3419      C3426   1.404       .  A
C3422      C3423   1.397       .  A
C3422      F3427   1.358       .  S
C3423      C3424   1.407       .  A
C3423      F3429   1.358       .  S
C3424      C3425   1.410       .  A
C3425      C3426   1.401       .  A
C3425      F3428   1.358       .  S
C3426      F3430   1.358       .  S
C3433      C3434   1.415       .  A
C3433      C3438   1.407   1_455  A
C3433      F3451   1.358       .  S
C3434      C3439   1.507       .  S
C3434      C3435   1.410   1_455  A
C3435      C3436   1.401       .  A
C3435      F3440   1.357       .  S
C3436      C3437   1.406       .  A
C3436      F3452   1.358       .  S
C3437      C3438   1.407       .  A
C3438      F3441   1.358       .  S
C3439      C3442   1.406       .  A
C3439      C3446   1.416       .  A
C3442      C3443   1.400       .  A
C3442      F3447   1.358       .  S
C3443      C3444   1.419       .  A
C3443      F3449   1.359       .  S
C3444      C3445   1.409       .  A
C3445      C3446   1.410       .  A
C3445      F3448   1.357       .  S
C3446      F3450   1.357       .  S
C3453      C3454   1.407       .  A
C3453      C3458   1.406       .  A
C3453      F3471   1.358       .  S
C3454      C3459   1.493       .  S
C3454      C3455   1.406       .  A
C3455      C3456   1.402       .  A
C3455      F3460   1.358       .  S
C3456      C3457   1.410       .  A
C3456      F3472   1.358       .  S
C3457      C3458   1.412       .  A
C3458      F3461   1.358       .  S
C3459      C3462   1.406       .  A
C3459      C3466   1.406       .  A
C3462      C3463   1.406       .  A
C3462      F3467   1.358       .  S
C3463      C3464   1.412       .  A
C3463      F3469   1.357       .  S
C3464      C3465   1.412       .  A
C3465      C3466   1.405       .  A
C3465      F3468   1.358       .  S
C3466      F3470   1.358       .  S
C3473      C3474   1.416       .  A
C3473      C3478   1.421       .  A
C3473      F3491   1.357       .  S
C3474      C3479   1.529       .  S
C3474      C3475   1.413       .  A
C3475      C3476   1.415       .  A
C3475      F3480   1.357       .  S
C3476      C3477   1.413       .  A
C3476      F3492   1.358       .  S
C3477      C3478   1.411       .  A
C3478      F3481   1.357       .  S
C3479      C3482   1.417       .  A
C3479      C3486   1.411       .  A
C3482      C3483   1.421       .  A
C3482      F3487   1.357       .  S
C3483      C3484   1.412       .  A
C3483      F3489   1.357       .  S
C3484      C3485   1.413       .  A
C3485      C3486   1.416       .  A
C3485      F3488   1.357       .  S
C3486      F3490   1.357       .  S
C3493      C3494   1.411       .  A
C3493      C3498   1.406       .  A
C3493      F3511   1.357       .  S
C3494      C3499   1.501       .  S
C3494      C3495   1.411       .  A
C3495      C3496   1.400       .  A
C3495      F3500   1.358       .  S
C3496      C3497   1.405       .  A
C3496      F3512   1.357       .  S
C3497      C3498   1.407       .  A
C3498      F3501   1.358       .  S
C3499      C3502   1.405       .  A
C3499      C3506   1.413       .  A
C3502      C3503   1.396       .  A
C3502      F3507   1.358       .  S
C3503      C3504   1.417       .  A
C3503      F3509   1.358       .  S
C3504      C3505   1.410       .  A
C3505      C3506   1.411       .  A
C3505      F3508   1.357       .  S
C3506      F3510   1.357       .  S
C3513      C3514   1.403       .  A
C3513      C3518   1.397       .  A
C3513      F3531   1.358       .  S
C3514      C3519   1.486       .  S
C3514      C3515   1.407   1_545  A
C3515      C3516   1.406       .  A
C3515      F3520   1.357       .  S
C3516      C3517   1.408       .  A
C3516      F3532   1.358       .  S
C3517      C3518   1.411   1_565  A
C3518      F3521   1.359       .  S
C3519      C3522   1.406       .  A
C3519      C3526   1.404       .  A
C3522      C3523   1.406       .  A
C3522      F3527   1.358       .  S
C3523      C3524   1.410       .  A
C3523      F3529   1.358       .  S
C3524      C3525   1.410       .  A
C3525      C3526   1.400       .  A
C3525      F3528   1.358       .  S
C3526      F3530   1.358   1_545  S
C3533      C3534   1.410       .  A
C3533      C3538   1.393       .  A
C3533      F3551   1.358       .  S
C3534      C3539   1.476       .  S
C3534      C3535   1.405       .  A
C3535      C3536   1.393       .  A
C3535      F3540   1.358       .  S
C3536      C3537   1.404       .  A
C3536      F3552   1.358       .  S
C3537      C3538   1.401       .  A
C3538      F3541   1.358       .  S
C3539      C3542   1.405       .  A
C3539      C3546   1.411       .  A
C3542      C3543   1.394       .  A
C3542      F3547   1.358       .  S
C3543      C3544   1.404       .  A
C3543      F3549   1.358       .  S
C3544      C3545   1.399       .  A
C3545      C3546   1.392       .  A
C3545      F3548   1.358       .  S
C3546      F3550   1.358       .  S
C3553      C3554   1.404       .  A
C3553      C3558   1.400       .  A
C3553      F3571   1.358       .  S
C3554      C3559   1.501       .  S
C3554      C3555   1.412       .  A
C3555      C3556   1.411       .  A
C3555      F3560   1.358   1_545  S
C3556      C3557   1.413       .  A
C3556      F3572   1.358   1_545  S
C3557      C3558   1.415       .  A
C3558      F3561   1.358       .  S
C3559      C3562   1.412       .  A
C3559      C3566   1.409       .  A
C3562      C3563   1.406       .  A
C3562      F3567   1.358       .  S
C3563      C3564   1.407       .  A
C3563      F3569   1.357       .  S
C3564      C3565   1.407       .  A
C3565      C3566   1.404       .  A
C3565      F3568   1.358       .  S
C3566      F3570   1.357       .  S
C3573      C3574   1.404       .  A
C3573      C3578   1.403       .  A
C3573      F3591   1.358       .  S
C3574      C3579   1.489       .  S
C3574      C3575   1.405       .  A
C3575      C3576   1.408       .  A
C3575      F3580   1.357       .  S
C3576      C3577   1.413       .  A
C3576      F3592   1.357       .  S
C3577      C3578   1.412       .  A
C3578      F3581   1.358       .  S
C3579      C3582   1.406       .  A
C3579      C3586   1.401       .  A
C3582      C3583   1.411       .  A
C3582      F3587   1.357   1_545  S
C3583      C3584   1.416       .  A
C3583      F3589   1.358       .  S
C3584      C3585   1.415       .  A
C3585      C3586   1.398       .  A
C3585      F3588   1.358       .  S
C3586      F3590   1.358       .  S
C3593      C3594   1.403       .  A
C3593      C3598   1.391       .  A
C3593      F3611   1.358       .  S
C3594      C3599   1.474       .  S
C3594      C3595   1.409       .  A
C3595      C3596   1.393       .  A
C3595      F3600   1.358       .  S
C3596      C3597   1.401       .  A
C3596      F3612   1.356       .  S
C3597      C3598   1.405       .  A
C3598      F3601   1.358       .  S
C3599      C3602   1.403       .  A
C3599      C3606   1.412       .  A
C3602      C3603   1.394       .  A
C3602      F3607   1.358       .  S
C3603      C3604   1.403       .  A
C3603      F3609   1.357       .  S
C3604      C3605   1.397       .  A
C3605      C3606   1.393       .  A
C3605      F3608   1.358       .  S
C3606      F3610   1.358       .  S
C3613      C3614   1.411       .  A
C3613      C3618   1.416       .  A
C3613      F3631   1.357       .  S
C3614      C3619   1.521       .  S
C3614      C3615   1.414       .  A
C3615      C3616   1.415       .  A
C3615      F3620   1.358       .  S
C3616      C3617   1.412       .  A
C3616      F3632   1.357   1_565  S
C3617      C3618   1.413       .  A
C3618      F3621   1.357       .  S
C3619      C3622   1.415       .  A
C3619      C3626   1.412       .  A
C3622      C3623   1.417       .  A
C3622      F3627   1.357       .  S
C3623      C3624   1.409       .  A
C3623      F3629   1.357       .  S
C3624      C3625   1.410       .  A
C3625      C3626   1.410       .  A
C3625      F3628   1.358       .  S
C3626      F3630   1.358       .  S
C3633      C3634   1.411       .  A
C3633      C3638   1.405       .  A
C3633      F3651   1.358       .  S
C3634      C3639   1.506       .  S
C3634      C3635   1.412       .  A
C3635      C3636   1.408       .  A
C3635      F3640   1.357       .  S
C3636      C3637   1.408       .  A
C3636      F3652   1.357       .  S
C3637      C3638   1.408       .  A
C3638      F3641   1.358       .  S
C3639      C3642   1.413       .  A
C3639      C3646   1.407       .  A
C3642      C3643   1.409       .  A
C3642      F3647   1.358       .  S
C3643      C3644   1.411       .  A
C3643      F3649   1.357       .  S
C3644      C3645   1.417       .  A
C3645      C3646   1.403       .  A
C3645      F3648   1.358       .  S
C3646      F3650   1.357       .  S
C3653      C3654   1.409       .  A
C3653      C3658   1.408       .  A
C3653      F3671   1.357       .  S
C3654      C3659   1.499       .  S
C3654      C3655   1.406       .  A
C3655      C3656   1.402       .  A
C3655      F3660   1.358       .  S
C3656      C3657   1.414       .  A
C3656      F3672   1.358       .  S
C3657      C3658   1.411       .  A
C3658      F3661   1.357       .  S
C3659      C3662   1.410       .  A
C3659      C3666   1.408       .  A
C3662      C3663   1.409       .  A
C3662      F3667   1.358       .  S
C3663      C3664   1.408       .  A
C3663      F3669   1.357       .  S
C3664      C3665   1.408       .  A
C3665      C3666   1.404       .  A
C3665      F3668   1.358       .  S
C3666      F3670   1.358       .  S
C3673      C3674   1.405       .  A
C3673      C3678   1.403       .  A
C3673      F3691   1.358   1_455  S
C3674      C3679   1.504   1_455  S
C3674      C3675   1.411       .  A
C3675      C3676   1.413       .  A
C3675      F3680   1.357       .  S
C3676      C3677   1.412       .  A
C3676      F3692   1.357       .  S
C3677      C3678   1.418       .  A
C3678      F3681   1.358       .  S
C3679      C3682   1.412       .  A
C3679      C3686   1.406   1_655  A
C3682      C3683   1.412       .  A
C3682      F3687   1.357       .  S
C3683      C3684   1.410       .  A
C3683      F3689   1.357       .  S
C3684      C3685   1.413       .  A
C3685      C3686   1.406   1_655  A
C3685      F3688   1.358       .  S
C3686      F3690   1.358       .  S
C3693      C3694   1.410       .  A
C3693      C3698   1.388       .  A
C3693      F3711   1.359       .  S
C3694      C3699   1.469       .  S
C3694      C3695   1.403       .  A
C3695      C3696   1.397       .  A
C3695      F3700   1.357       .  S
C3696      C3697   1.403       .  A
C3696      F3712   1.358       .  S
C3697      C3698   1.395       .  A
C3698      F3701   1.359       .  S
C3699      C3702   1.407       .  A
C3699      C3706   1.401       .  A
C3702      C3703   1.396       .  A
C3702      F3707   1.358       .  S
C3703      C3704   1.403       .  A
C3703      F3709   1.358       .  S
C3704      C3705   1.406       .  A
C3705      C3706   1.391       .  A
C3705      F3708   1.358       .  S
C3706      F3710   1.358       .  S
C3713      C3714   1.409       .  A
C3713      C3718   1.407       .  A
C3713      F3731   1.358       .  S
C3714      C3719   1.501       .  S
C3714      C3715   1.410       .  A
C3715      C3716   1.405       .  A
C3715      F3720   1.358       .  S
C3716      C3717   1.406       .  A
C3716      F3732   1.357       .  S
C3717      C3718   1.409       .  A
C3718      F3721   1.358       .  S
C3719      C3722   1.412       .  A
C3719      C3726   1.403       .  A
C3722      C3723   1.411       .  A
C3722      F3727   1.357       .  S
C3723      C3724   1.411       .  A
C3723      F3729   1.357       .  S
C3724      C3725   1.418       .  A
C3725      C3726   1.400       .  A
C3725      F3728   1.357       .  S
C3726      F3730   1.358       .  S
C3733      C3734   1.405       .  A
C3733      C3738   1.400       .  A
C3733      F3751   1.358       .  S
C3734      C3739   1.491       .  S
C3734      C3735   1.409       .  A
C3735      C3736   1.406       .  A
C3735      F3740   1.358       .  S
C3736      C3737   1.409       .  A
C3736      F3752   1.358       .  S
C3737      C3738   1.408       .  A
C3738      F3741   1.358       .  S
C3739      C3742   1.408       .  A
C3739      C3746   1.405       .  A
C3742      C3743   1.408       .  A
C3742      F3747   1.358       .  S
C3743      C3744   1.411       .  A
C3743      F3749   1.358       .  S
C3744      C3745   1.410       .  A
C3745      C3746   1.401       .  A
C3745      F3748   1.358       .  S
C3746      F3750   1.358       .  S
C3753      C3754   1.416       .  A
C3753      C3758   1.416       .  A
C3753      F3771   1.357       .  S
C3754      C3759   1.512       .  S
C3754      C3755   1.407       .  A
C3755      C3756   1.404       .  A
C3755      F3760   1.358       .  S
C3756      C3757   1.413       .  A
C3756      F3772   1.358       .  S
C3757      C3758   1.410       .  A
C3758      F3761   1.357       .  S
C3759      C3762   1.407       .  A
C3759      C3766   1.415       .  A
C3762      C3763   1.407       .  A
C3762      F3767   1.358       .  S
C3763      C3764   1.417       .  A
C3763      F3769   1.358       .  S
C3764      C3765   1.409       .  A
C3765      C3766   1.414       .  A
C3765      F3768   1.357       .  S
C3766      F3770   1.357       .  S
C3773      C3774   1.403       .  A
C3773      C3778   1.397       .  A
C3773      F3791   1.358       .  S
C3774      C3779   1.469       .  S
C3774      C3775   1.404       .  A
C3775      C3776   1.388       .  A
C3775      F3780   1.359       .  S
C3776      C3777   1.408       .  A
C3776      F3792   1.358       .  S
C3777      C3778   1.413       .  A
C3778      F3781   1.358       .  S
C3779      C3782   1.404       .  A
C3779      C3786   1.399       .  A
C3782      C3783   1.398       .  A
C3782      F3787   1.358       .  S
C3783      C3784   1.411       .  A
C3783      F3789   1.358       .  S
C3784      C3785   1.414       .  A
C3785      C3786   1.388       .  A
C3785      F3788   1.357       .  S
C3786      F3790   1.359       .  S
C3793      C3794   1.419       .  A
C3793      C3798   1.420       .  A
C3793      F3811   1.357       .  S
C3794      C3799   1.525       .  S
C3794      C3795   1.411       .  A
C3795      C3796   1.408       .  A
C3795      F3800   1.358       .  S
C3796      C3797   1.415       .  A
C3796      F3812   1.359       .  S
C3797      C3798   1.409       .  A
C3798      F3801   1.357       .  S
C3799      C3802   1.410       .  A
C3799      C3806   1.419       .  A
C3802      C3803   1.411       .  A
C3802      F3807   1.357       .  S
C3803      C3804   1.415       .  A
C3803      F3809   1.358       .  S
C3804      C3805   1.409       .  A
C3805      C3806   1.418       .  A
C3805      F3808   1.357       .  S
C3806      F3810   1.358       .  S
C3813      C3814   1.409       .  A
C3813      C3818   1.403       .  A
C3813      F3831   1.358       .  S
C3814      C3819   1.503       .  S
C3814      C3815   1.413       .  A
C3815      C3816   1.406       .  A
C3815      F3820   1.357       .  S
C3816      C3817   1.408       .  A
C3816      F3832   1.357       .  S
C3817      C3818   1.409       .  A
C3818      F3821   1.358       .  S
C3819      C3822   1.414       .  A
C3819      C3826   1.405       .  A
C3822      C3823   1.409       .  A
C3822      F3827   1.358       .  S
C3823      C3824   1.411       .  A
C3823      F3829   1.358       .  S
C3824      C3825   1.415       .  A
C3825      C3826   1.399       .  A
C3825      F3828   1.356       .  S
C3826      F3830   1.357       .  S
C3833      C3834   1.403       .  A
C3833      C3838   1.398   1_545  A
C3833      F3851   1.358       .  S
C3834      C3839   1.482       .  S
C3834      C3835   1.406   1_545  A
C3835      C3836   1.405       .  A
C3835      F3840   1.358       .  S
C3836      C3837   1.413       .  A
C3836      F3852   1.358       .  S
C3837      C3838   1.408       .  A
C3838      F3841   1.357   1_565  S
C3839      C3842   1.402       .  A
C3839      C3846   1.406       .  A
C3842      C3843   1.397       .  A
C3842      F3847   1.358   1_545  S
C3843      C3844   1.411       .  A
C3843      F3849   1.358       .  S
C3844      C3845   1.410       .  A
C3845      C3846   1.404       .  A
C3845      F3848   1.358       .  S
C3846      F3850   1.358       .  S
C3853      C3854   1.414       .  A
C3853      C3858   1.420       .  A
C3853      F3871   1.357       .  S
C3854      C3859   1.514       .  S
C3854      C3855   1.405       .  A
C3855      C3856   1.407       .  A
C3855      F3860   1.358       .  S
C3856      C3857   1.421       .  A
C3856      F3872   1.358       .  S
C3857      C3858   1.413       .  A
C3858      F3861   1.357       .  S
C3859      C3862   1.415       .  A
C3859      C3866   1.408       .  A
C3862      C3863   1.415       .  A
C3862      F3867   1.357       .  S
C3863      C3864   1.408       .  A
C3863      F3869   1.357       .  S
C3864      C3865   1.414       .  A
C3865      C3866   1.410       .  A
C3865      F3868   1.358       .  S
C3866      F3870   1.358       .  S
C3873      C3874   1.403       .  A
C3873      C3878   1.394       .  A
C3873      F3891   1.358       .  S
C3874      C3879   1.462       .  S
C3874      C3875   1.398       .  A
C3875      C3876   1.392       .  A
C3875      F3880   1.358       .  S
C3876      C3877   1.411       .  A
C3876      F3892   1.358       .  S
C3877      C3878   1.406       .  A
C3878      F3881   1.358       .  S
C3879      C3882   1.403       .  A
C3879      C3886   1.402       .  A
C3882      C3883   1.386       .  A
C3882      F3887   1.359       .  S
C3883      C3884   1.400       .  A
C3883      F3889   1.358       .  S
C3884      C3885   1.406       .  A
C3885      C3886   1.400       .  A
C3885      F3888   1.358       .  S
C3886      F3890   1.357       .  S
C3893      C3894   1.405       .  A
C3893      C3898   1.396       .  A
C3893      F3911   1.358       .  S
C3894      C3899   1.470       .  S
C3894      C3895   1.401       .  A
C3895      C3896   1.394       .  A
C3895      F3900   1.358       .  S
C3896      C3897   1.408       .  A
C3896      F3912   1.358       .  S
C3897      C3898   1.406       .  A
C3898      F3901   1.357       .  S
C3899      C3902   1.403       .  A
C3899      C3906   1.408       .  A
C3902      C3903   1.396       .  A
C3902      F3907   1.357       .  S
C3903      C3904   1.403       .  A
C3903      F3909   1.358       .  S
C3904      C3905   1.399       .  A
C3905      C3906   1.393       .  A
C3905      F3908   1.359       .  S
C3906      F3910   1.359       .  S
C3913      C3914   1.413       .  A
C3913      C3918   1.409       .  A
C3913      F3931   1.357   1_455  S
C3914      C3919   1.507   1_455  S
C3914      C3915   1.409       .  A
C3915      C3916   1.405   1_545  A
C3915      F3920   1.357       .  S
C3916      C3917   1.409   1_565  A
C3916      F3932   1.358       .  S
C3917      C3918   1.408       .  A
C3918      F3921   1.358       .  S
C3919      C3922   1.404       .  A
C3919      C3926   1.413   1_545  A
C3922      C3923   1.403       .  A
C3922      F3927   1.358       .  S
C3923      C3924   1.420       .  A
C3923      F3929   1.357       .  S
C3924      C3925   1.412       .  A
C3925      C3926   1.412   1_545  A
C3925      F3928   1.357   1_545  S
C3926      F3930   1.357       .  S
C3933      C3934   1.402       .  A
C3933      C3938   1.396       .  A
C3933      F3951   1.359       .  S
C3934      C3939   1.485       .  S
C3934      C3935   1.406   1_565  A
C3935      C3936   1.408       .  A
C3935      F3940   1.357       .  S
C3936      C3937   1.413   1_545  A
C3936      F3952   1.357       .  S
C3937      C3938   1.414       .  A
C3938      F3941   1.358       .  S
C3939      C3942   1.406       .  A
C3939      C3946   1.406   1_565  A
C3942      C3943   1.403       .  A
C3942      F3947   1.358       .  S
C3943      C3944   1.409       .  A
C3943      F3949   1.358       .  S
C3944      C3945   1.408   1_565  A
C3945      C3946   1.402       .  A
C3945      F3948   1.358       .  S
C3946      F3950   1.358       .  S
C3953      C3954   1.404       .  A
C3953      C3958   1.397       .  A
C3953      F3971   1.358       .  S
C3954      C3959   1.473       .  S
C3954      C3955   1.406       .  A
C3955      C3956   1.390       .  A
C3955      F3960   1.359       .  S
C3956      C3957   1.405       .  A
C3956      F3972   1.359       .  S
C3957      C3958   1.406       .  A
C3958      F3961   1.358       .  S
C3959      C3962   1.409       .  A
C3959      C3966   1.403       .  A
C3962      C3963   1.396       .  A
C3962      F3967   1.358       .  S
C3963      C3964   1.401       .  A
C3963      F3969   1.358       .  S
C3964      C3965   1.404       .  A
C3965      C3966   1.393       .  A
C3965      F3968   1.358       .  S
C3966      F3970   1.358       .  S
C3973      C3974   1.407       .  A
C3973      C3978   1.406       .  A
C3973      F3991   1.358       .  S
C3974      C3979   1.506       .  S
C3974      C3975   1.413       .  A
C3975      C3976   1.412       .  A
C3975      F3980   1.358   1_455  S
C3976      C3977   1.410       .  A
C3976      F3992   1.358       .  S
C3977      C3978   1.413       .  A
C3978      F3981   1.358       .  S
C3979      C3982   1.406   1_455  A
C3979      C3986   1.414       .  A
C3982      C3983   1.403       .  A
C3982      F3987   1.358       .  S
C3983      C3984   1.415       .  A
C3983      F3989   1.358       .  S
C3984      C3985   1.411       .  A
C3985      C3986   1.414   1_655  A
C3985      F3988   1.357       .  S
C3986      F3990   1.357       .  S
C3993      C3994   1.405       .  A
C3993      C3998   1.389       .  A
C3993      F4011   1.359       .  S
C3994      C3999   1.462       .  S
C3994      C3995   1.401       .  A
C3995      C3996   1.396       .  A
C3995      F4000   1.358       .  S
C3996      C3997   1.407       .  A
C3996      F4012   1.358       .  S
C3997      C3998   1.399       .  A
C3998      F4001   1.358       .  S
C3999      C4002   1.405       .  A
C3999      C4006   1.399       .  A
C4002      C4003   1.395   1_655  A
C4002      F4007   1.358       .  S
C4003      C4004   1.406       .  A
C4003      F4009   1.358       .  S
C4004      C4005   1.407   1_455  A
C4005      C4006   1.389       .  A
C4005      F4008   1.358       .  S
C4006      F4010   1.358       .  S
C4013      C4014   1.412       .  A
C4013      C4018   1.415       .  A
C4013      F4031   1.358       .  S
C4014      C4019   1.520       .  S
C4014      C4015   1.411       .  A
C4015      C4016   1.417       .  A
C4015      F4020   1.357       .  S
C4016      C4017   1.412       .  A
C4016      F4032   1.357       .  S
C4017      C4018   1.413       .  A
C4018      F4021   1.358       .  S
C4019      C4022   1.412       .  A
C4019      C4026   1.411       .  A
C4022      C4023   1.420       .  A
C4022      F4027   1.357       .  S
C4023      C4024   1.415       .  A
C4023      F4029   1.358       .  S
C4024      C4025   1.410       .  A
C4025      C4026   1.412       .  A
C4025      F4028   1.357       .  S
C4026      F4030   1.357       .  S
