geometry optimzed in LAMMPS
_audit_creation_date              2020-12-01 
_audit_creation_method            'lammps2cif' 
_symmetry_space_group_name_H-M    'P1' 
_symmetry_Int_Tables_number       1 
_symmetry_cell_setting            triclinic 
loop_ 
_symmetry_equiv_pos_as_xyz 
  x,y,z 
_cell_length_a                    35.91360179 
_cell_length_b                    36.02248998418397 
_cell_length_c                    48.90541104955799 
_cell_angle_alpha                 90.22087766393963 
_cell_angle_beta                  89.95548846710194 
_cell_angle_gamma                 119.7111705628102 
loop_ 
_atom_site_label 
_atom_site_type_symbol 
_atom_site_fract_x 
_atom_site_fract_y 
_atom_site_fract_z 
_atom_site_charge 
O1          O  0.45216104  0.61299712  0.63385511    -0.85600
O2          O  0.45600918  0.65800512  0.58741841    -0.82600
C3          C  0.45894326  0.66837452  0.56257937     0.97900
O4          O  0.46161387  0.64495812  0.54453857    -0.82700
O5          O  0.53995934  0.65013139  0.56147885    -0.85300
C6          C  0.56308914  0.64077723  0.57663783     1.02400
O7          O  0.54873965  0.60233477  0.58354959    -0.78100
O8          O  0.51399622  0.61439271  0.63026378    -0.78300
C9          C  0.48882005  0.62321805  0.64305625     1.02300
O10         O  0.39103979  0.53578650  0.60889719    -0.85600
O11         O  0.39107832  0.58002602  0.56325292    -0.82700
C12         C  0.38889125  0.55327632  0.54567995     0.97900
O13         O  0.42300969  0.55474833  0.53686125    -0.82700
O14         O  0.50431901  0.56330086  0.54275897    -0.85300
C15         C  0.48730544  0.52601145  0.55208863     1.02400
O16         O  0.47386902  0.51917087  0.57643110    -0.78100
O17         O  0.44441015  0.53075829  0.62649639    -0.78300
C18         C  0.40506758  0.51905475  0.62561484     1.02300
Cr19       Cr  0.42570871  0.59633424  0.59730102     1.93700
Cr20       Cr  0.48154615  0.60267002  0.54859690     1.93200
Cr21       Cr  0.49333289  0.56781058  0.60259416     1.39100
O22         O  0.46668716  0.58899632  0.58319152    -1.23300
O23         O  0.84592428  0.82917049  0.56653915    -0.85600
O24         O  0.88073048  0.86964662  0.61716554    -0.82600
C25         C  0.85032036  0.87002806  0.62998606     0.97900
O26         O  0.81708446  0.83536198  0.63510921    -0.82700
O27         O  0.75766537  0.74889445  0.63497783    -0.85300
C28         C  0.73821838  0.73650078  0.61193627     1.02400
O29         O  0.75720896  0.73369551  0.59126186    -0.78100
O30         O  0.81914510  0.76166373  0.55410081    -0.78300
C31         C  0.82911464  0.79989285  0.54873277     1.02300
O32         O  0.89695466  0.78984006  0.56839080    -0.85600
O33         O  0.91937322  0.81712248  0.61953015    -0.82700
C34         C  0.91999801  0.82499638  0.64448266     0.97900
O35         O  0.88607928  0.82056968  0.65636164    -0.82700
O36         O  0.82631125  0.73477595  0.65637977    -0.85300
C37         C  0.80882304  0.69794930  0.64612191     1.02400
O38         O  0.79424906  0.69141365  0.62195034    -0.78100
O39         O  0.86167221  0.72564676  0.58554446    -0.78300
C40         C  0.89068521  0.75226762  0.57025267     1.02300
Cr41       Cr  0.88213695  0.82346523  0.59418289     1.93700
Cr42       Cr  0.82263059  0.78431345  0.64315846     1.93200
Cr43       Cr  0.81009687  0.73164151  0.59004653     1.39100
O44         O  0.83769434  0.77958385  0.60926241    -1.23300
O45         O  0.84659436  0.52411697  0.79886454    -0.85600
O46         O  0.88243288  0.56081339  0.74871463    -0.82600
C47         C  0.89917205  0.54074558  0.73689213     0.97900
O48         O  0.87764894  0.50899515  0.72073585    -0.82700
O49         O  0.80119546  0.43009482  0.70458003    -0.85300
C50         C  0.80950954  0.40652214  0.71869253     1.02400
O51         O  0.82021301  0.41731902  0.74306688    -0.78100
O52         O  0.83510576  0.45893628  0.79139082    -0.78300
C53         C  0.84975364  0.49217878  0.80588900     1.02300
O54         O  0.76840073  0.51776497  0.78364391    -0.85600
O55         O  0.80021617  0.56000105  0.73724032    -0.82700
C56         C  0.81451543  0.56878355  0.71345957     0.97900
O57         O  0.83316999  0.55009769  0.70417982    -0.82700
O58         O  0.75309301  0.46895206  0.70874133    -0.85300
C59         C  0.72646671  0.43471305  0.72142030     1.02400
O60         O  0.73830875  0.41679395  0.73930195    -0.78100
O61         O  0.75249641  0.45126523  0.79096587    -0.78300
C62         C  0.74613277  0.48232405  0.79524235     1.02300
Cr63       Cr  0.82391419  0.53741815  0.76542466     1.93700
Cr64       Cr  0.81612635  0.48987249  0.71250444     1.93200
Cr65       Cr  0.78802669  0.43962524  0.76481683     1.39100
O66         O  0.80882487  0.48888063  0.74818316    -1.23300
O67         O  0.12481583  0.65236122  0.73319448    -0.85600
O68         O  0.08670489  0.66348686  0.77898909    -0.82600
C69         C  0.06729604  0.62412572  0.78462149     0.97900
O70         O  0.08482049  0.61002619  0.80133643    -0.82700
O71         O  0.15642693  0.60619490  0.82378515    -0.85300
C72         C  0.15728923  0.58071018  0.80665958     1.02400
O73         O  0.16163713  0.59026733  0.78162941    -0.78100
O74         O  0.17858313  0.63913518  0.73464080    -0.78300
C75         C  0.14744201  0.63840077  0.72231880     1.02300
O76         O  0.19944605  0.73040442  0.74418007    -0.85600
O77         O  0.16461493  0.74149866  0.79172164    -0.82700
C78         C  0.14617452  0.73341001  0.81465674     0.97900
O79         O  0.12455605  0.69529393  0.82198453    -0.82700
O80         O  0.20300719  0.69742011  0.83064755    -0.85300
C81         C  0.23563143  0.69486054  0.82278036     1.02400
O82         O  0.22998669  0.66368249  0.80807749    -0.78100
O83         O  0.24313976  0.71037554  0.76145435    -0.78300
C84         C  0.23634382  0.73494905  0.74658359     1.02300
Cr85       Cr  0.14511516  0.69502033  0.76358135     1.93700
Cr86       Cr  0.14322848  0.65276051  0.81745889     1.93200
Cr87       Cr  0.20040059  0.65162208  0.77222816     1.39100
O88         O  0.16297947  0.66628179  0.78377091    -1.23300
O89         O  0.11426655  0.94634015  0.97151915    -0.85600
O90         O  0.12601581  0.99417868  0.92462713    -0.82600
C91         C  0.12925915  0.00372270  0.89963398     0.97900
O92         O  0.13348058  0.98038391  0.88231869    -0.82700
O93         O  0.20830094  0.98329946  0.90380159    -0.85300
C94         C  0.22850483  0.97220650  0.92035256     1.02400
O95         O  0.21269410  0.93304682  0.92609033    -0.78100
O96         O  0.17294675  0.94115347  0.97132559    -0.78300
C97         C  0.14852961  0.95243799  0.98261952     1.02300
O98         O  0.05331809  0.87216917  0.94427917    -0.85600
O99         O  0.06183974  0.91821077  0.89823613    -0.82700
C100        C  0.05970429  0.89018759  0.88176168     0.97900
O101        O  0.09386083  0.89044967  0.87416370    -0.82700
O102        O  0.17465315  0.89813229  0.88332434    -0.85300
C103        C  0.15544859  0.85998233  0.89097080     1.02400
O104        O  0.13786071  0.85118010  0.91418302    -0.78100
O105        O  0.10177875  0.85943920  0.96215413    -0.78300
C106        C  0.06335929  0.85086468  0.95996923     1.02300
Cr107      Cr  0.09203971  0.93225097  0.93383157     1.93700
Cr108      Cr  0.15167433  0.93737896  0.88796862     1.93200
Cr109      Cr  0.15473249  0.89761489  0.94189054     1.39100
O110        O  0.13255624  0.92240544  0.92173258    -1.23300
O111        O  0.45521124  0.15198828  0.91112082    -0.85600
O112        O  0.47979987  0.19651428  0.95814843    -0.82600
C113        C  0.49294546  0.20743213  0.98201245     0.97900
O114        O  0.49929247  0.18201198  0.99572336    -0.82700
O115        O  0.41883352  0.10263260  0.98084342    -0.85300
C116        C  0.39608042  0.07007802  0.96537464     1.02400
O117        O  0.41204609  0.04995636  0.95280368    -0.78100
O118        O  0.44331347  0.08695898  0.90235532    -0.78300
C119        C  0.43791045  0.11829349  0.89682349     1.02300
O120        O  0.53531173  0.15629992  0.90571193    -0.85600
O121        O  0.56002643  0.19116011  0.95739382    -0.82700
C122        C  0.57112373  0.17165943  0.97475026     0.97900
O123        O  0.54369188  0.13974351  0.98900760    -0.82700
O124        O  0.46256005  0.05992687  0.99541911    -0.85300
C125        C  0.47944137  0.03976246  0.98558958     1.02400
O126        O  0.49337916  0.04874975  0.96159177    -0.78100
O127        O  0.52290890  0.09140862  0.91395248    -0.78300
C128        C  0.54162549  0.12559112  0.90054186     1.02300
Cr129      Cr  0.50631593  0.17051138  0.93466062     1.93700
Cr130      Cr  0.48093083  0.12092900  0.98739881     1.93200
Cr131      Cr  0.46887227  0.07264507  0.93427201     1.39100
O132        O  0.48578198  0.12146237  0.95159213    -1.23300
O133        O  0.17835657  0.18854564  0.46613303    -0.85600
O134        O  0.21447873  0.23293652  0.41928161    -0.82600
C135        C  0.23058541  0.20931161  0.41445299     0.97900
O136        O  0.21000464  0.17669642  0.39906093    -0.82700
O137        O  0.13507556  0.10073525  0.38167995    -0.85300
C138        C  0.13056119  0.07474044  0.40040611     1.02400
O139        O  0.12775320  0.08437958  0.42485065    -0.78100
O140        O  0.11861310  0.12677623  0.46966503    -0.78300
C141        C  0.15410468  0.15511952  0.47930451     1.02300
O142        O  0.10573679  0.19789540  0.45881378    -0.85600
O143        O  0.13762068  0.23801198  0.40881800    -0.82700
C144        C  0.15327080  0.24527970  0.38501487     0.97900
O145        O  0.17147316  0.22502774  0.37656804    -0.82700
O146        O  0.09344400  0.14992425  0.37040664    -0.85300
C147        C  0.05983734  0.11735068  0.37920053     1.02400
O148        O  0.06268072  0.09367964  0.39706409    -0.78100
O149        O  0.05678067  0.13786246  0.44065080    -0.78300
C150        C  0.06723384  0.16843558  0.45706307     1.02300
Cr151      Cr  0.15738377  0.21119418  0.43670457     1.93700
Cr152      Cr  0.15188251  0.16314472  0.38401974     1.93200
Cr153      Cr  0.09457211  0.11422910  0.43207811     1.39100
O154        O  0.13449005  0.16265962  0.41797934    -1.23300
O155        O  0.44277040  0.30025752  0.40508046    -0.85600
O156        O  0.41173580  0.31538543  0.45216890    -0.82600
C157        C  0.39671257  0.27844848  0.46231549     0.97900
O158        O  0.42043794  0.26910913  0.47677992    -0.82700
O159        O  0.49774794  0.27190759  0.49215382    -0.85300
C160        C  0.49760700  0.24551068  0.47530649     1.02400
O161        O  0.49698891  0.25204388  0.45001229    -0.78100
O162        O  0.50055209  0.29400151  0.40119902    -0.78300
C163        C  0.46542372  0.28863167  0.39190712     1.02300
O164        O  0.51593959  0.38246725  0.40755598    -0.85600
O165        O  0.48902951  0.39805602  0.45700268    -0.82700
C166        C  0.47538175  0.39298467  0.48119673     0.97900
O167        O  0.45956401  0.35673629  0.49190449    -0.82700
O168        O  0.54059889  0.36285985  0.49550775    -0.85300
C169        C  0.57274390  0.36096277  0.48610503     1.02400
O170        O  0.56706339  0.33090060  0.47016903    -0.78100
O171        O  0.56667451  0.37092645  0.42284854    -0.78300
C172        C  0.55438224  0.39069255  0.40735961     1.02300
Cr173      Cr  0.46687328  0.34759625  0.43211606     1.93700
Cr174      Cr  0.48025257  0.31561526  0.48677148     1.93200
Cr175      Cr  0.52971832  0.31250315  0.43712233     1.39100
O176        O  0.49229263  0.32506881  0.45152298    -1.23300
O177        O  0.81430150  0.31577387  0.29829219    -0.85600
O178        O  0.80548100  0.35168106  0.24967567    -0.82600
C179        C  0.79946320  0.35538086  0.22463714     0.97900
O180        O  0.79821087  0.32803237  0.20815602    -0.82700
O181        O  0.87861851  0.33426432  0.21949966    -0.85300
C182        C  0.90461143  0.32653659  0.23263794     1.02400
O183        O  0.89234719  0.28949289  0.24205552    -0.78100
O184        O  0.86740203  0.30222365  0.29228497    -0.78300
C185        C  0.84919927  0.31845142  0.30588367     1.02300
O186        O  0.74372559  0.23590425  0.28330208    -0.85600
O187        O  0.73383121  0.26863770  0.23550675    -0.82700
C188        C  0.72733922  0.23908630  0.21871524     0.97900
O189        O  0.75846739  0.23823997  0.20675562    -0.82700
O190        O  0.84045521  0.24596095  0.20423971    -0.85300
C191        C  0.82693321  0.20984503  0.21487922     1.02400
O192        O  0.81565968  0.20512690  0.23962934    -0.78100
O193        O  0.79417663  0.21988712  0.29151716    -0.78300
C194        C  0.75697818  0.21406479  0.29576307     1.02300
Cr195      Cr  0.77746107  0.29228122  0.26531740     1.93700
Cr196      Cr  0.81880068  0.28628492  0.21222991     1.93200
Cr197      Cr  0.84005517  0.25568581  0.26484639     1.39100
O198        O  0.81195660  0.27809604  0.24807372    -1.23300
O199        O  0.17998451  0.49344931  0.22939386    -0.85600
O200        O  0.16833068  0.53152138  0.27626714    -0.82600
C201        C  0.16577243  0.53888020  0.30125593     0.97900
O202        O  0.16131576  0.51127920  0.31858735    -0.82700
O203        O  0.08813209  0.43670649  0.29786638    -0.85300
C204        C  0.06950020  0.40524451  0.28131743     1.02400
O205        O  0.08666261  0.38259132  0.27635124    -0.78100
O206        O  0.12557470  0.42737515  0.22977025    -0.78300
C207        C  0.14820005  0.46260578  0.21784700     1.02300
O208        O  0.24432476  0.48455161  0.25617858    -0.85600
O209        O  0.23433512  0.52199310  0.30249458    -0.82700
C210        C  0.23737848  0.49712057  0.31933128     0.97900
O211        O  0.20400280  0.46361073  0.32754409    -0.82700
O212        O  0.12575524  0.38816039  0.32019842    -0.85300
C213        C  0.14599236  0.36970231  0.31256103     1.02400
O214        O  0.16390680  0.37905022  0.28947250    -0.78100
O215        O  0.19844648  0.42052205  0.24101711    -0.78300
C216        C  0.23586870  0.45197144  0.24198262     1.02300
Cr217      Cr  0.20349664  0.50401088  0.26702199     1.93700
Cr218      Cr  0.14560686  0.45012550  0.31381248     1.93200
Cr219      Cr  0.14503021  0.40569381  0.26077950     1.39100
O220        O  0.16489988  0.45359267  0.27994767    -1.23300
O221        O  0.78523854  0.98025057  0.07013273    -0.85600
O222        O  0.75192478  0.99522570  0.11731774    -0.82600
C223        C  0.73339275  0.95575888  0.12241623     0.97900
O224        O  0.75184185  0.94229109  0.13865587    -0.82700
O225        O  0.82467605  0.93861718  0.15839370    -0.85300
C226        C  0.82767627  0.91428438  0.14108488     1.02400
O227        O  0.82947541  0.92319693  0.11603275    -0.78100
O228        O  0.84141672  0.97084708  0.06859693    -0.78300
C229        C  0.80803953  0.96775391  0.05775654     1.02300
O230        O  0.86045390  0.05912344  0.07722951    -0.85600
O231        O  0.83060583  0.07396457  0.12598867    -0.82700
C232        C  0.81472385  0.06824167  0.14971419     0.97900
O233        O  0.79442265  0.03064130  0.15885656    -0.82700
O234        O  0.87032444  0.02923206  0.16579871    -0.85300
C235        C  0.90277391  0.02696091  0.15756979     1.02400
O236        O  0.89810400  0.99777765  0.14117897    -0.78100
O237        O  0.90714280  0.04373111  0.09500337    -0.78300
C238        C  0.89809315  0.06534280  0.07893688     1.02300
Cr239      Cr  0.80840420  0.02540307  0.09919676     1.93700
Cr240      Cr  0.81086186  0.98553984  0.15329422     1.93200
Cr241      Cr  0.86601183  0.98459960  0.10609985     1.39100
O242        O  0.82868673  0.99849267  0.11906587    -1.23300
O243        O  0.51520924  0.84489184  0.12928797    -0.85600
O244        O  0.55141840  0.89088820  0.08267532    -0.82600
C245        C  0.56670524  0.86837860  0.07335741     0.97900
O246        O  0.54365143  0.83569466  0.05858693    -0.82700
O247        O  0.46678967  0.76192505  0.04153334    -0.85300
C248        C  0.46307367  0.73435956  0.05886292     1.02400
O249        O  0.46189425  0.74221463  0.08394678    -0.78100
O250        O  0.45585969  0.78247157  0.13148744    -0.78300
C251        C  0.49057053  0.81085000  0.14189117     1.02300
O252        O  0.44419009  0.85738489  0.12354626    -0.85600
O253        O  0.47628001  0.90020606  0.07437428    -0.82700
C254        C  0.49059473  0.90833901  0.05021381     0.97900
O255        O  0.50681044  0.88714381  0.04029571    -0.82700
O256        O  0.42676315  0.81399225  0.03517743    -0.85300
C257        C  0.39335646  0.78140823  0.04406738     1.02400
O258        O  0.39670773  0.75582754  0.06007714    -0.78100
O259        O  0.39399701  0.79686328  0.10649175    -0.78300
C260        C  0.40555401  0.82808435  0.12258418     1.02300
Cr261      Cr  0.49491117  0.86993880  0.10071831     1.93700
Cr262      Cr  0.48528132  0.82444606  0.04624337     1.93200
Cr263      Cr  0.43044463  0.77307062  0.09449940     1.39100
O264        O  0.47032076  0.82230825  0.08098759    -1.23300
O265        O  0.62505808  0.09377089  0.39345129    -0.85600
O266        O  0.63874034  0.05134389  0.43402936    -0.82600
C267        C  0.66413190  0.06033126  0.45379459     0.97900
O268        O  0.66206899  0.07961207  0.47501762    -0.82700
O269        O  0.68588006  0.16376256  0.47744478    -0.85300
C270        C  0.68652695  0.19830718  0.47326810     1.02400
O271        O  0.65760028  0.19811751  0.45890840    -0.78100
O272        O  0.66570233  0.16012712  0.40896829    -0.78300
C273        C  0.65701821  0.13157382  0.39082109     1.02300
O274        O  0.53866609  0.06403073  0.41677637    -0.85600
O275        O  0.55329566  0.02045292  0.45643598    -0.82700
C276        C  0.54968449  0.02626481  0.48164275     0.97900
O277        O  0.57700028  0.05964042  0.49349292    -0.82700
O278        O  0.59705823  0.14175631  0.49338876    -0.85300
C279        C  0.56923383  0.14628667  0.47962673     1.02400
O280        O  0.56975341  0.14709527  0.45382876    -0.78100
O281        O  0.57816387  0.12784142  0.40109498    -0.78300
C282        C  0.54282020  0.09400954  0.40184092     1.02300
Cr283      Cr  0.59074009  0.06091695  0.42696687     1.93700
Cr284      Cr  0.62935982  0.11079784  0.48195873     1.93200
Cr285      Cr  0.61802591  0.15466502  0.43205257     1.39100
O286        O  0.61307107  0.10813563  0.44726168    -1.23300
O287        O  0.77970382  0.94818710  0.46313090    -0.85600
O288        O  0.72938150  0.93515564  0.41776000    -0.82600
C289        C  0.74862634  0.97457833  0.41253993     0.97900
O290        O  0.77988615  0.98943925  0.39564835    -0.82700
O291        O  0.85695405  0.99683665  0.37274196    -0.85300
C292        C  0.88411718  0.02158059  0.38991752     1.02400
O293        O  0.87776016  0.01191693  0.41485690    -0.78100
O294        O  0.84714383  0.96313150  0.46195940    -0.78300
C295        C  0.81610136  0.96295221  0.47424661     1.02300
O296        O  0.77945361  0.87158552  0.45216068    -0.85600
O297        O  0.73166305  0.85831722  0.40501127    -0.82700
C298        C  0.71952520  0.86535806  0.38234890     0.97900
O299        O  0.73598266  0.90333767  0.37411465    -0.82700
O300        O  0.81341801  0.90582970  0.36476550    -0.85300
C301        C  0.84858740  0.90858023  0.37235404     1.02400
O302        O  0.87385563  0.93897303  0.38772646    -0.78100
O303        O  0.84317053  0.89266061  0.43467692    -0.78300
C304        C  0.81269205  0.86842619  0.45011052     1.02300
Cr305      Cr  0.75821827  0.90523195  0.43289654     1.93700
Cr306      Cr  0.79706282  0.94849725  0.37890663     1.93200
Cr307      Cr  0.85667862  0.95079588  0.42395087     1.39100
O308        O  0.80421028  0.93477183  0.41246389    -1.23300
O309        O  0.10630225  0.62385786  0.12803917    -0.85600
O310        O  0.06010576  0.61169951  0.08082283    -0.82600
C311        C  0.08083149  0.64961117  0.07200217     0.97900
O312        O  0.11502642  0.66165452  0.05818865    -0.82700
O313        O  0.19195517  0.66345620  0.04225627    -0.85300
C314        C  0.21858948  0.68723235  0.06001235     1.02400
O315        O  0.21092223  0.67748011  0.08500027    -0.78100
O316        O  0.16975757  0.62864339  0.13150589    -0.78300
C317        C  0.13979623  0.63315750  0.14153577     1.02300
O318        O  0.09924956  0.54300295  0.12193637    -0.85600
O319        O  0.05810917  0.53073121  0.07239382    -0.82700
C320        C  0.05037264  0.53738030  0.04833098     0.97900
O321        O  0.06969065  0.57489662  0.03924049    -0.82700
O322        O  0.14556368  0.57248455  0.03430790    -0.85300
C323        C  0.17927530  0.57357261  0.04333066     1.02400
O324        O  0.20310193  0.60217778  0.06012209    -0.78100
O325        O  0.16075387  0.55490789  0.10524076    -0.78300
C326        C  0.12892000  0.53405131  0.12068280     1.02300
Cr327      Cr  0.08442325  0.57909246  0.09913478     1.93700
Cr328      Cr  0.13082780  0.61763389  0.04573912     1.93200
Cr329      Cr  0.18243332  0.61531006  0.09449126     1.39100
O330        O  0.13283121  0.60449115  0.08027692    -1.23300
O331        O  0.95921407  0.74694896  0.06882084    -0.85600
O332        O  0.94747137  0.70240621  0.11652277    -0.82600
C333        C  0.98726378  0.72458455  0.12072989     0.97900
O334        O  0.00068903  0.75812528  0.13549066    -0.82700
O335        O  0.00334105  0.83572310  0.15231472    -0.85300
C336        C  0.02457628  0.86270440  0.13405080     1.02400
O337        O  0.01324318  0.85361222  0.10935526    -0.78100
O338        O  0.96217523  0.80933543  0.06423522    -0.78300
C339        C  0.96844392  0.77999535  0.05508485     1.02300
O340        O  0.87839551  0.73982511  0.07454763    -0.85600
O341        O  0.86769555  0.70132790  0.12500182    -0.82700
C342        C  0.87481162  0.69412946  0.14912144     0.97900
O343        O  0.91299564  0.71292905  0.15791185    -0.82700
O344        O  0.91286625  0.78927857  0.16310312    -0.85300
C345        C  0.91213646  0.82183450  0.15378889     1.02400
O346        O  0.93876171  0.84492611  0.13588241    -0.78100
O347        O  0.88910439  0.79995762  0.09242618    -0.78300
C348        C  0.86912235  0.76915012  0.07617595     1.02300
Cr349      Cr  0.91486429  0.72586701  0.09771123     1.93700
Cr350      Cr  0.95707670  0.77401286  0.15010497     1.93200
Cr351      Cr  0.95033842  0.82332894  0.10142358     1.39100
O352        O  0.94107338  0.77477579  0.11602358    -1.23300
O353        O  0.65037644  0.44403524  0.29766610    -0.85600
O354        O  0.60514992  0.40479305  0.25054400    -0.82600
C355        C  0.59558755  0.39750222  0.22554176     0.97900
O356        O  0.61911316  0.42454293  0.20797738    -0.82700
O357        O  0.61301984  0.49647023  0.22431165    -0.85300
C358        C  0.62050046  0.52828945  0.23939828     1.02400
O359        O  0.65729897  0.55138083  0.24964540    -0.78100
O360        O  0.64661559  0.50308215  0.29620266    -0.78300
C361        C  0.64077155  0.46983244  0.30867782     1.02300
O362        O  0.72767717  0.46214868  0.27275909    -0.85600
O363        O  0.68346883  0.41900792  0.22628913    -0.82700
C364        C  0.71146969  0.44432832  0.20984731     0.97900
O365        O  0.71069181  0.47745206  0.20178452    -0.82700
O366        O  0.70098319  0.54942034  0.20782404    -0.85300
C367        C  0.73753386  0.57101296  0.21852524     1.02400
O368        O  0.74288524  0.56346561  0.24295932    -0.78100
O369        O  0.73080792  0.51920257  0.29121302    -0.78300
C370        C  0.74258166  0.49161106  0.29047090     1.02300
Cr371      Cr  0.66694260  0.43608484  0.26075170     1.93700
Cr372      Cr  0.66156098  0.48680950  0.21276940     1.93200
Cr373      Cr  0.69314321  0.53114869  0.26813568     1.39100
O374        O  0.67364889  0.48455790  0.24761941    -1.23300
O375        O  0.46212406  0.64325379  0.23187869    -0.85600
O376        O  0.42106768  0.59756903  0.27894948    -0.82600
C377        C  0.41305557  0.58904593  0.30400030     0.97900
O378        O  0.44033732  0.61266696  0.32144741    -0.82700
O379        O  0.51396546  0.60868652  0.30369420    -0.85300
C380        C  0.54598653  0.61941344  0.28788491     1.02400
O381        O  0.57007146  0.65858394  0.28290078    -0.78100
O382        O  0.52586564  0.64859031  0.23484052    -0.78300
C383        C  0.49183322  0.63850819  0.22180897     1.02300
O384        O  0.47434920  0.71898806  0.25594597    -0.85600
O385        O  0.43329331  0.67585266  0.30240557    -0.82700
C386        C  0.45830770  0.70414826  0.31902471     0.97900
O387        O  0.49082181  0.70312610  0.32851242    -0.82700
O388        O  0.56456087  0.69632023  0.32402043    -0.85300
C389        C  0.58578549  0.73365261  0.31460244     1.02400
O390        O  0.57735961  0.74091487  0.29081180    -0.78100
O391        O  0.53657378  0.73049560  0.24076535    -0.78300
C392        C  0.50652483  0.73899039  0.24064947     1.02300
Cr393      Cr  0.45140414  0.65936178  0.26838128     1.93700
Cr394      Cr  0.50236299  0.65566983  0.31721550     1.93200
Cr395      Cr  0.54917003  0.69310528  0.26384845     1.39100
O396        O  0.50073557  0.66941814  0.28264931    -1.23300
O397        O  0.97568145  0.10827386  0.96455194    -0.85600
O398        O  0.97314304  0.06483933  0.91637429    -0.82600
C399        C  0.94372262  0.06469395  0.90208368     0.97900
O400        O  0.94652227  0.09930745  0.89493163    -0.82700
O401        O  0.97579206  0.18510095  0.89107871    -0.85300
C402        C  0.96444818  0.19602359  0.91301351     1.02400
O403        O  0.98318376  0.19927248  0.93515723    -0.78100
O404        O  0.01583194  0.17613481  0.97604696    -0.78300
C405        C  0.98686056  0.13833976  0.98158107     1.02300
O406        O  0.06623126  0.14705514  0.96566358    -0.85600
O407        O  0.06436907  0.11558339  0.91609949    -0.82700
C408        C  0.05937509  0.10758533  0.89103945     0.97900
O409        O  0.03019660  0.11029012  0.87774632    -0.82700
O410        O  0.05915915  0.19492078  0.87565751    -0.85300
C411        C  0.07676374  0.23273279  0.88407545     1.02400
O412        O  0.06483075  0.24153138  0.90642711    -0.78100
O413        O  0.09611697  0.21052617  0.94704983    -0.78300
C414        C  0.09739113  0.18466349  0.96372814     1.02300
Cr415      Cr  0.01946474  0.11163798  0.93934004     1.93700
Cr416      Cr  0.00400288  0.14810554  0.88733618     1.93200
Cr417      Cr  0.03876519  0.20355582  0.93953039     1.39100
O418        O  0.02056485  0.15459267  0.92195649    -1.23300
O419        O  0.81379014  0.32514624  0.89049961    -0.85600
O420        O  0.76267589  0.27929394  0.93481579    -0.82600
C421        C  0.75212272  0.26786410  0.95931128     0.97900
O422        O  0.77905367  0.28653971  0.97808549    -0.82700
O423        O  0.85185605  0.27864369  0.96362369    -0.85300
C424        C  0.88596630  0.28882994  0.95015808     1.02400
O425        O  0.91197297  0.32783379  0.94680562    -0.78100
O426        O  0.87170539  0.31981716  0.89739095    -0.78300
C427        C  0.84028154  0.31379556  0.88271613     1.02300
O428        O  0.83183377  0.40297492  0.91644106    -0.85600
O429        O  0.78100519  0.35853644  0.95967940    -0.82700
C430        C  0.80281637  0.38032942  0.97993161     0.97900
O431        O  0.83217105  0.37461678  0.99019254    -0.82700
O432        O  0.90413973  0.36508979  0.98699297    -0.85300
C433        C  0.92775544  0.40246252  0.97800630     1.02400
O434        O  0.92329617  0.41096367  0.95360749    -0.78100
O435        O  0.89002653  0.40463914  0.90186579    -0.78300
C436        C  0.86507407  0.41961512  0.90179095     1.02300
Cr437      Cr  0.80081126  0.34147787  0.92660469     1.93700
Cr438      Cr  0.84213631  0.32684397  0.97739803     1.93200
Cr439      Cr  0.89579847  0.36448663  0.92624965     1.39100
O440        O  0.84586264  0.34433981  0.94313668    -1.23300
O441        O  0.26741621  0.41519343  0.72220565    -0.85600
O442        O  0.29362138  0.38385338  0.76180572    -0.82600
C443        C  0.32340709  0.39841575  0.77896294     0.97900
O444        O  0.32212355  0.41794628  0.80037276    -0.82700
O445        O  0.33905180  0.49971641  0.79885564    -0.85300
C446        C  0.33620590  0.53216885  0.79353823     1.02400
O447        O  0.30303773  0.52719796  0.78174545    -0.78100
O448        O  0.30645431  0.48351640  0.73414039    -0.78300
C449        C  0.29895718  0.45259470  0.71830998     1.02300
O450        O  0.18508931  0.38220302  0.75132001    -0.85600
O451        O  0.21351635  0.34934894  0.79029998    -0.82700
C452        C  0.21221958  0.35788038  0.81519874     0.97900
O453        O  0.23800368  0.39393797  0.82496373    -0.82700
O454        O  0.25178199  0.47430723  0.82099445    -0.85300
C455        C  0.22038269  0.47485736  0.80881766     1.02400
O456        O  0.21546330  0.47012363  0.78324565    -0.78100
O457        O  0.21668592  0.44358527  0.73112034    -0.78300
C458        C  0.18429288  0.40734362  0.73409260     1.02300
Cr459      Cr  0.24143399  0.38635836  0.75806888     1.93700
Cr460      Cr  0.28601067  0.44544419  0.80878754     1.93200
Cr461      Cr  0.26097330  0.47803336  0.75884451     1.39100
O462        O  0.26290989  0.43596304  0.77563888    -1.23300
O463        O  0.43842974  0.25603730  0.81390783    -0.85600
O464        O  0.41666118  0.29686450  0.77780908    -0.82600
C465        C  0.42380279  0.32148101  0.75810745     0.97900
O466        O  0.43644640  0.31496096  0.73527358    -0.82700
O467        O  0.51967237  0.33017135  0.73792366    -0.85300
C468        C  0.55086163  0.32413617  0.74158209     1.02400
O469        O  0.54418103  0.28897533  0.75135899    -0.78100
O470        O  0.50683055  0.28450476  0.80237693    -0.78300
C471        C  0.47806800  0.27836993  0.81967229     1.02300
O472        O  0.39265816  0.17846710  0.78192941    -0.85600
O473        O  0.36812621  0.21968802  0.74484294    -0.82700
C474        C  0.37520913  0.21464772  0.72002246     0.97900
O475        O  0.41245479  0.23352891  0.71036894    -0.82700
O476        O  0.49420023  0.24819833  0.71057104    -0.85300
C477        C  0.49219699  0.21379948  0.71911993     1.02400
O478        O  0.48071573  0.20163673  0.74328688    -0.78100
O479        O  0.45645334  0.19656334  0.79681829    -0.78300
C480        C  0.41678221  0.17118707  0.79680765     1.02300
Cr481      Cr  0.40755326  0.23904072  0.77773265     1.93700
Cr482      Cr  0.46474216  0.27989871  0.72619898     1.93200
Cr483      Cr  0.49419972  0.24382323  0.77221203     1.39100
O484        O  0.45511843  0.25453833  0.75873515    -1.23300
O485        O  0.13885729  0.98677151  0.56577173    -0.85600
O486        O  0.10182487  0.94169922  0.61351855    -0.82600
C487        C  0.09485642  0.93382823  0.63869845     0.97900
O488        O  0.12204346  0.95879732  0.65576419    -0.82700
O489        O  0.19660102  0.95747190  0.63720771    -0.85300
C490        C  0.22785446  0.96720785  0.62089413     1.02400
O491        O  0.25038632  0.00567887  0.61318559    -0.78100
O492        O  0.20324852  0.99338027  0.56659743    -0.78300
C493        C  0.16799927  0.98204071  0.55473214     1.02300
O494        O  0.14977011  0.06191383  0.59025445    -0.85600
O495        O  0.11172633  0.01940972  0.63672419    -0.82700
C496        C  0.13701943  0.04904599  0.65248633     0.97900
O497        O  0.17091882  0.05004640  0.66103779    -0.82700
O498        O  0.24537527  0.04559353  0.65445735    -0.85300
C499        C  0.26168088  0.08310262  0.64548361     1.02400
O500        O  0.25439894  0.08841448  0.62101765    -0.78100
O501        O  0.21077602  0.07455358  0.57224979    -0.78300
C502        C  0.18029115  0.08237514  0.57395782     1.02300
Cr503      Cr  0.12917876  0.00292791  0.60242102     1.93700
Cr504      Cr  0.18356386  0.00332105  0.64998748     1.93200
Cr505      Cr  0.22673704  0.03898742  0.59499910     1.39100
O506        O  0.17957735  0.01472718  0.61526052    -1.23300
O507        O  0.32315635  0.78252808  0.63683722    -0.85600
O508        O  0.32038934  0.73735399  0.58893843    -0.82600
C509        C  0.28803775  0.73303754  0.57603898     0.97900
O510        O  0.28606070  0.76583954  0.56985396    -0.82700
O511        O  0.30885022  0.85159756  0.56492438    -0.85300
C512        C  0.30307996  0.86773513  0.58675967     1.02400
O513        O  0.32634338  0.87477566  0.60734150    -0.78100
O514        O  0.36125534  0.85139430  0.64698981    -0.78300
C515        C  0.33382180  0.81318118  0.65340405     1.02300
O516        O  0.41335904  0.82491410  0.63543795    -0.85600
O517        O  0.40977093  0.79393664  0.58523096    -0.82700
C518        C  0.40232781  0.78372089  0.56050387     0.97900
O519        O  0.37065635  0.78371790  0.54840864    -0.82700
O520        O  0.39162490  0.86652875  0.54363310    -0.85300
C521        C  0.41194010  0.90448119  0.55186318     1.02400
O522        O  0.40503078  0.91422820  0.57557905    -0.78100
O523        O  0.44022353  0.88625910  0.61477140    -0.78300
C524        C  0.44426747  0.86191501  0.63128998     1.02300
Cr525      Cr  0.36582569  0.78739287  0.61026483     1.93700
Cr526      Cr  0.34062985  0.81790023  0.55928457     1.93200
Cr527      Cr  0.38175856  0.87800461  0.60960521     1.39100
O528        O  0.36222820  0.82803243  0.59290188    -1.23300
O529        O  0.54491120  0.83473901  0.72899955    -0.85600
O530        O  0.57632501  0.86729651  0.78030716    -0.82600
C531        C  0.55289557  0.88331484  0.78676363     0.97900
O532        O  0.51957945  0.86206977  0.80185617    -0.82700
O533        O  0.44065302  0.78319925  0.81745533    -0.85300
C534        C  0.41397974  0.78380840  0.80149586     1.02400
O535        O  0.42436591  0.79161697  0.77681600    -0.78100
O536        O  0.47587719  0.81406880  0.73196029    -0.78300
C537        C  0.51207016  0.83572837  0.72078530     1.02300
O538        O  0.54356802  0.75795946  0.74345137    -0.85600
O539        O  0.57640674  0.78738317  0.79246452    -0.82700
C540        C  0.58357659  0.80319719  0.81599502     0.97900
O541        O  0.56252559  0.82043979  0.82370957    -0.82700
O542        O  0.48265537  0.73838189  0.81839236    -0.85300
C543        C  0.45137565  0.70894236  0.80439949     1.02400
O544        O  0.43540391  0.71701138  0.78339285    -0.78100
O545        O  0.47600736  0.73501126  0.73356141    -0.78300
C546        C  0.50990087  0.73296553  0.73097550     1.02300
Cr547      Cr  0.55636485  0.81067061  0.76259016     1.93700
Cr548      Cr  0.50207835  0.80102276  0.81235580     1.93200
Cr549      Cr  0.45690722  0.76652981  0.75801776     1.39100
O550        O  0.50479846  0.79192567  0.77713993    -1.23300
O551        O  0.67371667  0.13825086  0.80448706    -0.85600
O552        O  0.65453469  0.07540073  0.76888627    -0.82600
C553        C  0.63268322  0.05602273  0.74832842     0.97900
O554        O  0.63896204  0.07443699  0.72512168    -0.82700
O555        O  0.61476184  0.13464316  0.71869402    -0.85300
C556        C  0.61299442  0.16831266  0.72048496     1.02400
O557        O  0.64290172  0.20005124  0.73232796    -0.78100
O558        O  0.63441744  0.16150055  0.78384444    -0.78300
C559        C  0.64217157  0.14532382  0.80442902     1.02300
O560        O  0.75987825  0.18505743  0.77925007    -0.85600
O561        O  0.73934288  0.11762416  0.74452738    -0.82700
C562        C  0.74537759  0.12544227  0.71912477     0.97900
O563        O  0.72368089  0.13771954  0.70592430    -0.82700
O564        O  0.70403131  0.20069123  0.70091750    -0.85300
C565        C  0.73177781  0.23439355  0.71385089     1.02400
O566        O  0.73116432  0.23664274  0.73940980    -0.78100
O567        O  0.72329635  0.21515971  0.79214023    -0.78300
C568        C  0.75783092  0.21420534  0.79206791     1.02300
Cr569      Cr  0.70571384  0.13096414  0.77236718     1.93700
Cr570      Cr  0.67128914  0.13805805  0.71518068     1.93200
Cr571      Cr  0.68267358  0.19958513  0.76102874     1.39100
O572        O  0.68670549  0.15551111  0.74921286    -1.23300
O573        O  0.15817307  0.45615877  0.63031485    -0.85600
O574        O  0.20239046  0.46539448  0.58307354    -0.82600
C575        C  0.21208780  0.47136220  0.55819196     0.97900
O576        O  0.18671830  0.47481245  0.54240490    -0.82700
O577        O  0.10471206  0.40170106  0.55872063    -0.85300
C578        C  0.07116547  0.38360738  0.57389833     1.02400
O579        O  0.05154625  0.40385286  0.57919923    -0.78100
O580        O  0.08766679  0.42882959  0.63042656    -0.78300
C581        C  0.12149169  0.43146162  0.64008530     1.02300
O582        O  0.16599632  0.53836249  0.62304923    -0.85600
O583        O  0.20325559  0.54584107  0.57315565    -0.82700
C584        C  0.18488491  0.55606372  0.55474657     0.97900
O585        O  0.15143958  0.52778574  0.54194036    -0.82700
O586        O  0.06867669  0.45313794  0.53867388    -0.85300
C587        C  0.05208906  0.47417659  0.54786379     1.02400
O588        O  0.06107889  0.48825045  0.57186756    -0.78100
O589        O  0.09609848  0.51009283  0.62175837    -0.78300
C590        C  0.13221605  0.53865357  0.62973649     1.02300
Cr591      Cr  0.17819512  0.49923384  0.60095840     1.93700
Cr592      Cr  0.12755837  0.46431279  0.54815819     1.93200
Cr593      Cr  0.07805748  0.45885347  0.59950929     1.39100
O594        O  0.12833634  0.47484987  0.58354391    -1.23300
O595        O  0.98077414  0.11490058  0.56592575    -0.85600
O596        O  0.02746440  0.12340483  0.61339149    -0.82600
C597        C  0.03540955  0.12316138  0.63847086     0.97900
O598        O  0.00921033  0.12279986  0.65563359    -0.82700
O599        O  0.00341146  0.19531182  0.63886997    -0.85300
C600        C  0.99010074  0.21576708  0.62434100     1.02400
O601        O  0.95138213  0.19741902  0.61627589    -0.78100
O602        O  0.96247544  0.16504855  0.56817873    -0.78300
C603        C  0.97875104  0.14590146  0.55558189     1.02300
O604        O  0.90865270  0.04462262  0.58827684    -0.85600
O605        O  0.95186834  0.05045787  0.63525187    -0.82700
C606        C  0.92165335  0.04329949  0.65153311     0.97900
O607        O  0.91827551  0.07433061  0.66139600    -0.82700
O608        O  0.91670668  0.15139354  0.65845008    -0.85300
C609        C  0.87879574  0.13074866  0.64991372     1.02400
O610        O  0.87248042  0.11588142  0.62590546    -0.78100
O611        O  0.88541572  0.08788080  0.57555495    -0.78300
C612        C  0.88394188  0.05218994  0.57407929     1.02300
Cr613      Cr  0.96625925  0.08639707  0.60182518     1.93700
Cr614      Cr  0.96141310  0.13529068  0.65123579     1.93200
Cr615      Cr  0.91988078  0.13999204  0.59818662     1.39100
O616        O  0.94938028  0.12057887  0.61643228    -1.23300
O617        O  0.64160642  0.42764765  0.90381095    -0.85600
O618        O  0.69169573  0.44851624  0.95026672    -0.82600
C619        C  0.70317725  0.45554891  0.97491149     0.97900
O620        O  0.68001910  0.46132373  0.99188703    -0.82700
O621        O  0.67507178  0.53081379  0.96692945    -0.85300
C622        C  0.66131377  0.54772843  0.94963173     1.02400
O623        O  0.62204171  0.52780245  0.94313940    -0.78100
O624        O  0.63505150  0.48520121  0.90100362    -0.78300
C625        C  0.64690282  0.46032283  0.89102220     1.02300
O626        O  0.56981711  0.36845836  0.93389557    -0.85600
O627        O  0.61823644  0.38568867  0.98025834    -0.82700
C628        C  0.58905138  0.38404607  0.99551603     0.97900
O629        O  0.58836403  0.41820495  0.00109315    -0.82700
O630        O  0.58820474  0.49268793  0.98749419    -0.85300
C631        C  0.55001658  0.47149034  0.97910564     1.02400
O632        O  0.54272570  0.45161880  0.95662923    -0.78100
O633        O  0.55509035  0.41202382  0.91119488    -0.78300
C634        C  0.54869427  0.37493535  0.91591046     1.02300
Cr635      Cr  0.62966959  0.41064875  0.94276315     1.93700
Cr636      Cr  0.63247914  0.47462624  0.98484840     1.93200
Cr637      Cr  0.59034138  0.46787616  0.92973690     1.39100
O638        O  0.61750654  0.45084546  0.95203983    -1.23300
O639        O  0.83347010  0.82309540  0.96748134    -0.85600
O640        O  0.87673829  0.81934574  0.92052557    -0.82600
C641        C  0.88494184  0.81876612  0.89539925     0.97900
O642        O  0.85847522  0.81724708  0.87791430    -0.82700
O643        O  0.78275460  0.74127909  0.89182318    -0.85300
C644        C  0.74883668  0.71771253  0.90536480     1.02400
O645        O  0.72652622  0.73307734  0.91492788    -0.78100
O646        O  0.77030199  0.76512260  0.96304127    -0.78300
C647        C  0.80353200  0.78858493  0.97684673     1.02300
O648        O  0.82299585  0.88838115  0.94444360    -0.85600
O649        O  0.86708402  0.88744472  0.89852239    -0.82700
C650        C  0.84373766  0.89287925  0.88163086     0.97900
O651        O  0.81037888  0.86093726  0.87184911    -0.82700
O652        O  0.73506589  0.78159600  0.87420131    -0.85300
C653        C  0.71317035  0.79678707  0.88428252     1.02400
O654        O  0.72036463  0.81018825  0.90863796    -0.78100
O655        O  0.76063263  0.83778137  0.95893390    -0.78300
C656        C  0.79031440  0.87617558  0.95947659     1.02300
Cr657      Cr  0.84626467  0.85130943  0.93160472     1.93700
Cr658      Cr  0.79673125  0.80093727  0.88133023     1.93200
Cr659      Cr  0.74814440  0.78853332  0.93470790     1.39100
O660        O  0.79722651  0.81349579  0.91636371    -1.23300
O661        O  0.33514558  0.43930357  0.13288353    -0.85600
O662        O  0.34307368  0.40248102  0.08502488    -0.82600
C663        C  0.30359906  0.38594556  0.07969840     0.97900
O664        O  0.29149559  0.40616777  0.06380156    -0.82700
O665        O  0.29307277  0.48240176  0.04413784    -0.85300
C666        C  0.26965937  0.48722228  0.06118328     1.02400
O667        O  0.27817300  0.48843738  0.08629780    -0.78100
O668        O  0.32445377  0.49465998  0.13360378    -0.78300
C669        C  0.32317356  0.46268578  0.14501036     1.02300
O670        O  0.41533573  0.51039508  0.12390470    -0.85600
O671        O  0.42417542  0.47889163  0.07442381    -0.82700
C672        C  0.41644652  0.46291210  0.05070102     0.97900
O673        O  0.37819823  0.44359336  0.04259522    -0.82700
O674        O  0.38345696  0.52365046  0.03696525    -0.85300
C675        C  0.38429672  0.55742780  0.04599621     1.02400
O676        O  0.35640660  0.55459142  0.06291446    -0.78100
O677        O  0.39956117  0.55869443  0.11002530    -0.78300
C678        C  0.42195524  0.54800105  0.12432106     1.02300
Cr679      Cr  0.37754874  0.45931954  0.10239329     1.93700
Cr680      Cr  0.33699955  0.46459012  0.04918241     1.93200
Cr681      Cr  0.34014736  0.52067658  0.09712722     1.39100
O682        O  0.35138213  0.48170579  0.08349947    -1.23300
O683        O  0.19920889  0.16873289  0.06697662    -0.85600
O684        O  0.23751141  0.20202026  0.11609190    -0.82600
C685        C  0.21532783  0.21738988  0.12631459     0.97900
O686        O  0.18276570  0.19452048  0.14150733    -0.82700
O687        O  0.10706654  0.11549445  0.15847061    -0.85300
C688        C  0.08044385  0.11753688  0.14307777     1.02400
O689        O  0.08974605  0.12492308  0.11831896    -0.78100
O690        O  0.12850141  0.13420708  0.06979031    -0.78300
C691        C  0.16295503  0.16148942  0.05865710     1.02300
O692        O  0.20235561  0.09274098  0.07720400    -0.85600
O693        O  0.24105056  0.12218004  0.12556018    -0.82700
C694        C  0.24958964  0.13709712  0.14936076     0.97900
O695        O  0.23034040  0.15557266  0.15819000    -0.82700
O696        O  0.15374127  0.07329750  0.15782137    -0.85300
C697        C  0.12087276  0.04223080  0.14634601     1.02400
O698        O  0.09812169  0.04872348  0.12904611    -0.78100
O699        O  0.13198045  0.05777637  0.07819909    -0.78300
C700        C  0.16700263  0.06103276  0.07067730     1.02300
Cr701      Cr  0.21628965  0.14490461  0.09804892     1.93700
Cr702      Cr  0.16847765  0.13442464  0.15129934     1.93200
Cr703      Cr  0.11609297  0.09387667  0.10011890     1.39100
O704        O  0.16678067  0.12405167  0.11577202    -1.23300
O705        O  0.85259220  0.47266976  0.39041593    -0.85600
O706        O  0.88331331  0.53296647  0.42889926    -0.82600
C707        C  0.88016306  0.55060440  0.45015743     0.97900
O708        O  0.86830725  0.53043479  0.47277067    -0.82700
O709        O  0.78204073  0.46928543  0.47297472    -0.85300
C710        C  0.74768555  0.43546598  0.46789105     1.02400
O711        O  0.74895205  0.40555783  0.45524167    -0.78100
O712        O  0.78618301  0.44486826  0.40561438    -0.78300
C713        C  0.81419127  0.46493518  0.38756506     1.02300
O714        O  0.89249145  0.43005819  0.41848769    -0.85600
O715        O  0.92803860  0.49528852  0.45648790    -0.82700
C716        C  0.92272715  0.48153459  0.48083808     0.97900
O717        O  0.88622677  0.46409626  0.49165354    -0.82700
O718        O  0.80139419  0.40283215  0.49202126    -0.85300
C719        C  0.79774273  0.36966086  0.47971653     1.02400
O720        O  0.80428497  0.37023780  0.45448803    -0.78100
O721        O  0.82736579  0.39526510  0.40246664    -0.78300
C722        C  0.86510777  0.40150233  0.40321860     1.02300
Cr723      Cr  0.88574407  0.48058446  0.42542835     1.93700
Cr724      Cr  0.83499016  0.46590108  0.47977181     1.93200
Cr725      Cr  0.79481761  0.40743117  0.43061639     1.39100
O726        O  0.83897789  0.45184654  0.44551801    -1.23300
O727        O  0.01613900  0.77812327  0.47024340    -0.85600
O728        O  0.01547538  0.74015761  0.42113587    -0.82600
C729        C  0.97622001  0.72339359  0.41430479     0.97900
O730        O  0.96407549  0.74318853  0.39779468    -0.82700
O731        O  0.96522130  0.82096283  0.37759714    -0.85300
C732        C  0.93752896  0.82118600  0.39271530     1.02400
O733        O  0.93940418  0.81494415  0.41768689    -0.78100
O734        O  0.96801993  0.79879136  0.46473367    -0.78300
C735        C  0.98234444  0.77806623  0.47744800     1.02300
O736        O  0.09131230  0.85321199  0.45361370    -0.85600
O737        O  0.09496331  0.81890746  0.40687872    -0.82700
C738        C  0.08609718  0.80060658  0.38416678     0.97900
O739        O  0.04778774  0.78136103  0.37693236    -0.82700
O740        O  0.05240737  0.86438796  0.37742540    -0.85300
C741        C  0.05201041  0.89569684  0.39011982     1.02400
O742        O  0.02486641  0.88982708  0.40898290    -0.78100
O743        O  0.04679212  0.87729997  0.46060723    -0.78300
C744        C  0.08275730  0.87979222  0.46411460     1.02300
Cr745      Cr  0.05179512  0.79853916  0.43660905     1.93700
Cr746      Cr  0.00779087  0.80280606  0.38513925     1.93200
Cr747      Cr  0.99651648  0.84308582  0.43663562     1.39100
O748        O  0.01898564  0.81544768  0.42003477    -1.23300
O749        O  0.30586867  0.77470529  0.22882911    -0.85600
O750        O  0.35384844  0.78151067  0.27560787    -0.82600
C751        C  0.36352243  0.78433017  0.30066218     0.97900
O752        O  0.34059130  0.78949932  0.31790045    -0.82700
O753        O  0.34045821  0.86351942  0.29868516    -0.85300
C754        C  0.32752329  0.88299685  0.28300323     1.02400
O755        O  0.28783835  0.86648419  0.27877762    -0.78100
O756        O  0.29854326  0.83203503  0.23116329    -0.78300
C757        C  0.31043039  0.80893895  0.21867459     1.02300
O758        O  0.23080464  0.71078290  0.25435611    -0.85600
O759        O  0.27717630  0.71647271  0.30045738    -0.82700
C760        C  0.24984124  0.71392969  0.31771684     0.97900
O761        O  0.25054285  0.74755264  0.32661135    -0.82700
O762        O  0.25370415  0.82543124  0.32007205    -0.85300
C763        C  0.21555040  0.80614434  0.31172050     1.02400
O764        O  0.20764537  0.79002473  0.28804162    -0.78100
O765        O  0.21747250  0.75962875  0.23826080    -0.78300
C766        C  0.20900997  0.72138725  0.23936355     1.02300
Cr767      Cr  0.29132426  0.74902355  0.26575021     1.93700
Cr768      Cr  0.29580624  0.80586570  0.31362650     1.93200
Cr769      Cr  0.25457082  0.81048845  0.26053972     1.39100
O770        O  0.28065516  0.78815545  0.27948482    -1.23300
O771        O  0.49187175  0.15385350  0.30161286    -0.85600
O772        O  0.53803444  0.15474803  0.25575527    -0.82600
C773        C  0.54856756  0.15515280  0.23109381     0.97900
O774        O  0.52296809  0.15216592  0.21241018    -0.82700
O775        O  0.44988923  0.07316871  0.22403634    -0.85300
C776        C  0.41565033  0.04751840  0.23640811     1.02400
O777        O  0.39124052  0.06037411  0.24591684    -0.78100
O778        O  0.43448118  0.09134629  0.29417364    -0.78300
C779        C  0.46602558  0.11599029  0.30892516     1.02300
O780        O  0.47539520  0.21520279  0.27661359    -0.85600
O781        O  0.52418483  0.21980097  0.23257180    -0.82700
C782        C  0.50070553  0.22279007  0.21451277     0.97900
O783        O  0.46936284  0.18956424  0.20437692    -0.82700
O784        O  0.39742191  0.10895043  0.20644472    -0.85300
C785        C  0.37395569  0.12202159  0.21710719     1.02400
O786        O  0.37962503  0.13372529  0.24184878    -0.78100
O787        O  0.41783657  0.16040752  0.29293298    -0.78300
C788        C  0.44398007  0.20004225  0.29277496     1.02300
Cr789      Cr  0.50405601  0.18279590  0.26546809     1.93700
Cr790      Cr  0.45981054  0.13144019  0.21414436     1.93200
Cr791      Cr  0.40909335  0.11360987  0.26723500     1.39100
O792        O  0.45779840  0.14262502  0.24924705    -1.23300
C793        C  0.40156672  0.00203789  0.24041339    -0.05700
C794        C  0.42224927  0.98986286  0.25992286    -0.33100
C795        C  0.39961756  0.95043079  0.27369810     0.36100
C796        C  0.35589741  0.92298410  0.26780248    -0.06100
C797        C  0.33725740  0.93378900  0.24606753    -0.33000
C798        C  0.35965586  0.97251205  0.23245910     0.36000
H799        H  0.45474587  0.01237744  0.26602299     0.16400
O800        O  0.41985903  0.94022292  0.29359202    -0.60500
H801        H  0.30424700  0.91282038  0.24005669     0.16400
O802        O  0.33869995  0.98318657  0.21328952    -0.60600
H803        H  0.34613290  0.97541309  0.19544712     0.43400
H804        H  0.41232451  0.94890928  0.31107110     0.43300
C805        C  0.11928489  0.80133395  0.36607225    -0.05700
C806        C  0.10855371  0.78701223  0.33889602    -0.33100
C807        C  0.13929491  0.78819917  0.32087300     0.36100
C808        C  0.18163803  0.80371271  0.32994071    -0.06100
C809        C  0.19216344  0.81744366  0.35726291    -0.33000
C810        C  0.16148434  0.81628106  0.37525692     0.36000
H811        H  0.07624167  0.77528782  0.33138118     0.16400
O812        O  0.12747965  0.77416999  0.29451361    -0.60500
H813        H  0.22441611  0.82913455  0.36488779     0.16400
O814        O  0.17329507  0.83004361  0.40167757    -0.60600
H815        H  0.16824523  0.80429002  0.41197312     0.43400
H816        H  0.13240761  0.79979573  0.28411295     0.43300
C817        C  0.89505849  0.59673064  0.44735062    -0.05700
C818        C  0.93269765  0.62550648  0.46075676    -0.33100
C819        C  0.95843812  0.66697351  0.45066978     0.36100
C820        C  0.94630947  0.68087161  0.42671245    -0.06100
C821        C  0.90631105  0.65330328  0.41498260    -0.33000
C822        C  0.88121355  0.61134439  0.42481808     0.36000
H823        H  0.94451605  0.61461457  0.47753503     0.16400
O824        O  0.99704755  0.69249048  0.46334322    -0.60500
H825        H  0.89571260  0.66319071  0.39710670     0.16400
O826        O  0.84426953  0.58378892  0.41124700    -0.60600
H827        H  0.85374687  0.57526889  0.39447401     0.43400
H828        H  0.99002258  0.69667197  0.48232257     0.43300
C829        C  0.28122528  0.13308604  0.16686769    -0.05700
C830        C  0.29534906  0.10434825  0.15959896    -0.33100
C831        C  0.32446480  0.09941682  0.17612282     0.36100
C832        C  0.34041389  0.12373856  0.20038486    -0.06100
C833        C  0.32565411  0.15177613  0.20792286    -0.33000
C834        C  0.29667658  0.15681108  0.19140498     0.36000
H835        H  0.28351767  0.08529053  0.14113328     0.16400
O836        O  0.33701041  0.07065730  0.16829004    -0.60500
H837        H  0.33752855  0.17088161  0.22636908     0.16400
O838        O  0.28406960  0.18542995  0.19943370    -0.60600
H839        H  0.30601063  0.21330805  0.19188366     0.43400
H840        H  0.31831957  0.04425061  0.17867697     0.43300
C841        C  0.27456062  0.34425651  0.09368328    -0.05700
C842        C  0.29010492  0.33493416  0.11779003    -0.33100
C843        C  0.26834299  0.29494996  0.13045448     0.36100
C844        C  0.22962650  0.26268801  0.11956529    -0.06100
C845        C  0.21239992  0.27233275  0.09652013    -0.33000
C846        C  0.23434654  0.31278618  0.08364084     0.36000
H847        H  0.32061283  0.35832391  0.12645497     0.16400
O848        O  0.28721142  0.28655271  0.15214141    -0.60500
H849        H  0.18343624  0.24734287  0.08733380     0.16400
O850        O  0.21748124  0.32010145  0.06049601    -0.60600
H851        H  0.22517806  0.30668661  0.04540690     0.43400
H852        H  0.27253700  0.28920638  0.16858297     0.43300
C853        C  0.68853396  0.59014240  0.93608510    -0.05700
C854        C  0.66961808  0.60191803  0.91497853    -0.33100
C855        C  0.69108283  0.64215164  0.90275536     0.36100
C856        C  0.73300701  0.67186746  0.91075303    -0.06100
C857        C  0.75356736  0.65951525  0.93030844    -0.33000
C858        C  0.73167361  0.61893824  0.94294100     0.36000
H859        H  0.63705917  0.58039588  0.90835662     0.16400
O860        O  0.67002578  0.65297629  0.88372747    -0.60500
H861        H  0.78556337  0.68242614  0.93720455     0.16400
O862        O  0.75232427  0.60850753  0.96241268    -0.60600
H863        H  0.74582633  0.61776083  0.98003591     0.43400
H864        H  0.65097091  0.66020365  0.89441118     0.43300
C865        C  0.51522121  0.47064539  0.99620487    -0.05700
C866        C  0.52601127  0.49221580  0.02157072    -0.33100
C867        C  0.49453940  0.49002212  0.03944510     0.36100
C868        C  0.45091704  0.46608247  0.03224603    -0.06100
C869        C  0.44006578  0.44548404  0.00652612    -0.33000
C870        C  0.47165403  0.44769016  0.98859206     0.36000
H871        H  0.55919956  0.51056925  0.02795695     0.16400
O872        O  0.50705189  0.51190155  0.06376928    -0.60500
H873        H  0.40681761  0.42724719  0.00023077     0.16400
O874        O  0.45936300  0.42648531  0.96402339    -0.60600
H875        H  0.45517754  0.44587232  0.95165357     0.43400
H876        H  0.50851347  0.49172032  0.07687480     0.43300
C877        C  0.95905750  0.48500867  0.49749472    -0.05700
C878        C  0.95618892  0.48490878  0.52623202    -0.33100
C879        C  0.98695027  0.48293597  0.54283179     0.36100
C880        C  0.02131948  0.48040920  0.53088903    -0.06100
C881        C  0.02496897  0.48172464  0.50219947    -0.33000
C882        C  0.99462713  0.48466547  0.48556854     0.36000
H883        H  0.92936658  0.48547798  0.53597476     0.16400
O884        O  0.98210634  0.48184281  0.57069679    -0.60500
H885        H  0.05129382  0.48005966  0.49258136     0.16400
O886        O  0.99875557  0.48458473  0.45770049    -0.60600
H887        H  0.01786097  0.51494652  0.45274660     0.43400
H888        H  0.96388411  0.45116810  0.57524871     0.43300
C889        C  0.05425497  0.34078488  0.58759130    -0.05700
C890        C  0.02226578  0.32963638  0.60781197    -0.33100
C891        C  0.00420305  0.29060163  0.62161581     0.36100
C892        C  0.01790837  0.26108424  0.61599186    -0.06100
C893        C  0.05135474  0.27249917  0.59692145    -0.33000
C894        C  0.06955503  0.31199052  0.58278374     0.36000
H895        H  0.01034489  0.35112267  0.61297217     0.16400
O896        O  0.97245651  0.28121912  0.64049290    -0.60500
H897        H  0.06185679  0.24981387  0.59195479     0.16400
O898        O  0.10170901  0.32161993  0.56424779    -0.60600
H899        H  0.08807948  0.31740381  0.54602027     0.43400
H900        H  0.94598685  0.27223376  0.62966048     0.43300
C901        C  0.84320255  0.12540000  0.66818168    -0.05700
C902        C  0.85168813  0.13723202  0.69604713    -0.33100
C903        C  0.81959724  0.13500301  0.71355021     0.36100
C904        C  0.77812549  0.12080044  0.70336786    -0.06100
C905        C  0.76926726  0.10757199  0.67585308    -0.33000
C906        C  0.80119618  0.10984010  0.65835750     0.36000
H907        H  0.88366934  0.14929283  0.70424294     0.16400
O908        O  0.83002305  0.15000464  0.73984443    -0.60500
H909        H  0.73752053  0.09668377  0.66754953     0.16400
O910        O  0.79108589  0.09791431  0.63152155    -0.60600
H911        H  0.79677148  0.12436531  0.62184545     0.43400
H912        H  0.82531968  0.12496225  0.75081794     0.43300
C913        C  0.61640998  0.80193245  0.83400519    -0.05700
C914        C  0.63490638  0.77722547  0.82605982    -0.33100
C915        C  0.66554957  0.77474600  0.84239203     0.36100
C916        C  0.67907389  0.79767313  0.86735610    -0.06100
C917        C  0.66050024  0.82234112  0.87544806    -0.33000
C918        C  0.62966985  0.82477554  0.85901169     0.36000
H919        H  0.62536070  0.75927241  0.80707466     0.16400
O920        O  0.68202051  0.74963679  0.83355575    -0.60500
H921        H  0.67036206  0.84039483  0.89438632     0.16400
O922        O  0.61294457  0.84975394  0.86763750    -0.60600
H923        H  0.63171706  0.87825826  0.85949687     0.43400
H924        H  0.66262568  0.72087922  0.84113378     0.43300
C925        C  0.56577913  0.92625636  0.77485451    -0.05700
C926        C  0.58987768  0.93785927  0.75034249    -0.33100
C927        C  0.60730131  0.97894518  0.73929281     0.36100
C928        C  0.60164008  0.01009793  0.75282281    -0.06100
C929        C  0.57522760  0.99803863  0.77632427    -0.33000
C930        C  0.55696042  0.95639426  0.78716021     0.36000
H931        H  0.59701096  0.91544102  0.74009416     0.16400
O932        O  0.63408821  0.98964068  0.71715085    -0.60500
H933        H  0.57112076  0.02190557  0.78737258     0.16400
O934        O  0.53300117  0.94655738  0.81060317    -0.60600
H935        H  0.55375610  0.95338905  0.82576625     0.43400
H936        H  0.61564038  0.98565993  0.70108244     0.43300
C937        C  0.25661808  0.69012201  0.56508916    -0.05700
C938        C  0.27205988  0.66914553  0.54825518    -0.33100
C939        C  0.24597746  0.62631396  0.54058691     0.36100
C940        C  0.20374326  0.60274181  0.55046114    -0.06100
C941        C  0.18711851  0.62461695  0.56565352    -0.33000
C942        C  0.21304168  0.66823856  0.57256954     0.36000
H943        H  0.30527638  0.68557800  0.54202106     0.16400
O944        O  0.26348348  0.60668578  0.52553719    -0.60500
H945        H  0.15521844  0.60693466  0.57428813     0.16400
O946        O  0.19673366  0.68764320  0.58900268    -0.60600
H947        H  0.18827081  0.70359381  0.57632691     0.43400
H948        H  0.25865429  0.61136641  0.50619614     0.43300
C949        C  0.51441232  0.86021374  0.69636771    -0.05700
C950        C  0.49701882  0.88744304  0.69753535    -0.33100
C951        C  0.48128425  0.89640071  0.67384474     0.36100
C952        C  0.48166877  0.87666047  0.64906377    -0.06100
C953        C  0.50527443  0.85528822  0.64721470    -0.33000
C954        C  0.52224938  0.84745468  0.67079336     0.36000
H955        H  0.49127708  0.89775887  0.71716616     0.16400
O956        O  0.45844801  0.91751165  0.67611938    -0.60500
H957        H  0.50544999  0.83966973  0.62826089     0.16400
O958        O  0.53960927  0.82113237  0.66913528    -0.60600
H959        H  0.57106350  0.84064323  0.66896120     0.43400
H960        H  0.47823085  0.94695005  0.66971569     0.43300
C961        C  0.12514208  0.08172377  0.65901902    -0.05700
C962        C  0.08784199  0.06818238  0.67434829    -0.33100
C963        C  0.06025761  0.08427687  0.66913827     0.36100
C964        C  0.06969194  0.11464106  0.64817845    -0.06100
C965        C  0.10955756  0.13196854  0.63505543    -0.33000
C966        C  0.13764504  0.11628609  0.64079324     0.36000
H967        H  0.07720913  0.04108656  0.68794307     0.16400
O968        O  0.02157121  0.06601694  0.68235816    -0.60500
H969        H  0.11794539  0.15602679  0.61940858     0.16400
O970        O  0.17477962  0.13138136  0.62601386    -0.60600
H971        H  0.19816147  0.14876733  0.63909337     0.43400
H972        H  0.00322092  0.03944842  0.67192699     0.43300
C973        C  0.23909686  0.93530790  0.60964694    -0.05700
C974        C  0.26273796  0.94518201  0.58504663    -0.33100
C975        C  0.27882995  0.91944218  0.57489723     0.36100
C976        C  0.27170191  0.88291160  0.58928399    -0.06100
C977        C  0.24510901  0.87093636  0.61263258    -0.33000
C978        C  0.22843906  0.89648742  0.62265448     0.36000
H979        H  0.27048532  0.97418081  0.57406189     0.16400
O980        O  0.30486384  0.93249715  0.55230568    -0.60500
H981        H  0.23997150  0.84331974  0.62436178     0.16400
O982        O  0.20400569  0.88442124  0.64594651    -0.60600
H983        H  0.22483292  0.89428327  0.66128029     0.43400
H984        H  0.33402340  0.95240026  0.55936282     0.43300
C985        C  0.15907211  0.96418192  0.52704317    -0.05700
C986        C  0.13471447  0.97551108  0.51019078    -0.33100
C987        C  0.11188011  0.94986269  0.48819027     0.36100
C988        C  0.11441831  0.91299256  0.48228062    -0.06100
C989        C  0.14407541  0.90542627  0.49659148    -0.33000
C990        C  0.16654417  0.93101130  0.51902282     0.36000
H991        H  0.13025585  0.00228941  0.51557521     0.16400
O992        O  0.08554550  0.95991683  0.47349420    -0.60500
H993        H  0.14714007  0.87763720  0.49191268     0.16400
O994        O  0.19164491  0.92041130  0.53454474    -0.60600
H995        H  0.22125946  0.93900913  0.52780356     0.43400
H996        H  0.06008488  0.95155235  0.48523957     0.43300
C997        C  0.57630986  0.17106137  0.70938281    -0.05700
C998        C  0.58329502  0.20684563  0.69398235    -0.33100
C999        C  0.54991409  0.21588250  0.68997428     0.36100
C1000       C  0.51109051  0.19148719  0.70400732    -0.06100
C1001       C  0.50164798  0.15108303  0.71390084    -0.33000
C1002       C  0.53425250  0.14091344  0.71688691     0.36000
H1003       H  0.61516626  0.22915163  0.68664171     0.16400
O1004       O  0.55781016  0.25212670  0.67615523    -0.60500
H1005       H  0.47100866  0.13058223  0.72355034     0.16400
O1006       O  0.52600580  0.10480036  0.73097892    -0.60600
H1007       H  0.52012871  0.08294089  0.71670828     0.43400
H1008       H  0.54199003  0.24180790  0.65864300     0.43300
C1009       C  0.34048448  0.18466284  0.70155394    -0.05700
C1010       C  0.34526471  0.19173503  0.67312061    -0.33100
C1011       C  0.31918237  0.15961485  0.65449297     0.36100
C1012       C  0.28773199  0.11943289  0.66415679    -0.06100
C1013       C  0.28117041  0.11335598  0.69257663    -0.33000
C1014       C  0.30692333  0.14561710  0.71118582     0.36000
H1015       H  0.37074398  0.22169995  0.66524410     0.16400
O1016       O  0.32609484  0.16725805  0.62698865    -0.60500
H1017       H  0.25650467  0.08298473  0.70050724     0.16400
O1018       O  0.30132925  0.13718198  0.73866075    -0.60600
H1019       H  0.28023778  0.14580653  0.74447120     0.43400
H1020       H  0.34979921  0.16164859  0.62250140     0.43300
C1021       C  0.52202670  0.34069406  0.89667496    -0.05700
C1022       C  0.53919641  0.31624789  0.88586579    -0.33100
C1023       C  0.52415154  0.29457772  0.86109078     0.36100
C1024       C  0.49065293  0.29616376  0.84729975    -0.06100
C1025       C  0.47008312  0.31622817  0.85974255    -0.33000
C1026       C  0.48631081  0.33949638  0.88396769     0.36000
H1027       H  0.56696488  0.31714699  0.89525352     0.16400
O1028       O  0.54359875  0.27352446  0.84992647    -0.60500
H1029       H  0.44322814  0.31620768  0.84978693     0.16400
O1030       O  0.46830963  0.36234412  0.89448662    -0.60600
H1031       H  0.47903604  0.38810856  0.88282461     0.43400
H1032       H  0.52903873  0.24476206  0.85837926     0.43300
C1033       C  0.36933766  0.57571862  0.80243626    -0.05700
C1034       C  0.41301300  0.59192343  0.79654928    -0.33100
C1035       C  0.44286109  0.63569356  0.80064393     0.36100
C1036       C  0.42938696  0.66326916  0.81189175    -0.06100
C1037       C  0.38658647  0.64580367  0.82012742    -0.33000
C1038       C  0.35659380  0.60302138  0.81482582     0.36000
H1039       H  0.42334364  0.57160161  0.78665511     0.16400
O1040       O  0.48366318  0.65220672  0.79054285    -0.60500
H1041       H  0.37518097  0.66658804  0.82784044     0.16400
O1042       O  0.31430784  0.58866054  0.82071890    -0.60600
H1043       H  0.30335698  0.59848996  0.80536743     0.43400
H1044       H  0.49793655  0.64090739  0.80256249     0.43300
C1045       C  0.35948397  0.39082939  0.77283366    -0.05700
C1046       C  0.38390685  0.38752178  0.79388668    -0.33100
C1047       C  0.40999160  0.36950790  0.78868312     0.36100
C1048       C  0.41213918  0.35510379  0.76203039    -0.06100
C1049       C  0.39327442  0.36487232  0.74038388    -0.33000
C1050       C  0.36673554  0.38219032  0.74556223     0.36000
H1051       H  0.38010791  0.39543931  0.81471666     0.16400
O1052       O  0.43109362  0.36350572  0.81007823    -0.60500
H1053       H  0.39532077  0.35502241  0.71972858     0.16400
O1054       O  0.34638769  0.38862230  0.72386073    -0.60600
H1055       H  0.32334732  0.35975514  0.71832125     0.43400
H1056       H  0.40825979  0.34106286  0.82149766     0.43300
C1057       C  0.14963159  0.39399744  0.71427726    -0.05700
C1058       C  0.15350334  0.37505874  0.69015271    -0.33100
C1059       C  0.13919324  0.38254170  0.66534545     0.36100
C1060       C  0.11952452  0.40792214  0.66487784    -0.06100
C1061       C  0.10937640  0.42076073  0.68956341    -0.33000
C1062       C  0.12517231  0.41466866  0.71427669     0.36000
H1063       H  0.17306301  0.35984044  0.68988990     0.16400
O1064       O  0.14963068  0.36986328  0.64143807    -0.60500
H1065       H  0.09441740  0.44052772  0.68936795     0.16400
O1066       O  0.12107668  0.43341229  0.73772091    -0.60600
H1067       H  0.14553157  0.46310868  0.73755026     0.43400
H1068       H  0.12289466  0.34408422  0.63551338     0.43300
C1069       C  0.79254140  0.41296490  0.98970744    -0.05700
C1070       C  0.75713454  0.39987044  0.00702302    -0.33100
C1071       C  0.73062045  0.41814270  0.00488197     0.36100
C1072       C  0.73852019  0.44874726  0.98441501    -0.06100
C1073       C  0.77671911  0.46540181  0.96945238    -0.33000
C1074       C  0.80435160  0.44865631  0.97265861     0.36000
H1075       H  0.74706893  0.37207906  0.01988178     0.16400
O1076       O  0.69364684  0.40121139  0.01998650    -0.60500
H1077       H  0.78359133  0.48923241  0.95385575     0.16400
O1078       O  0.83949432  0.46318271  0.95597992    -0.60600
H1079       H  0.86468278  0.47988634  0.96818961     0.43400
H1080       H  0.70204219  0.41703659  0.03758729     0.43300
C1081       C  0.79304549  0.24489951  0.80928056    -0.05700
C1082       C  0.81144761  0.22996764  0.82851373    -0.33100
C1083       C  0.83169291  0.25445417  0.85181383     0.36100
C1084       C  0.83338593  0.29395161  0.85564121    -0.06100
C1085       C  0.82032582  0.31114720  0.83451085    -0.33000
C1086       C  0.80038500  0.28693983  0.81131059     0.36000
H1087       H  0.80594997  0.19760586  0.82708795     0.16400
O1088       O  0.84431103  0.23711961  0.87221887    -0.60500
H1089       H  0.82238781  0.34204270  0.83702076     0.16400
O1090       O  0.78383450  0.30268634  0.79223508    -0.60600
H1091       H  0.80853856  0.32214459  0.78070415     0.43400
H1092       H  0.87338186  0.24313331  0.86683709     0.43300
C1093       C  0.11156617  0.26586188  0.86696745    -0.05700
C1094       C  0.12596508  0.25247309  0.84412002    -0.33100
C1095       C  0.15863454  0.28180646  0.82725086     0.36100
C1096       C  0.17864709  0.32572053  0.83325827    -0.06100
C1097       C  0.16449343  0.33934812  0.85608474    -0.33000
C1098       C  0.13107813  0.30992095  0.87272686     0.36000
H1099       H  0.11185088  0.21885017  0.83909424     0.16400
O1100       O  0.17146455  0.26698683  0.80535295    -0.60500
H1101       H  0.17866820  0.37312112  0.86069322     0.16400
O1102       O  0.11695468  0.32477799  0.89390174    -0.60600
H1103       H  0.13480190  0.32644042  0.90981813     0.43400
H1104       H  0.14981600  0.26091642  0.79088438     0.43300
C1105       C  0.85624861  0.93767538  0.87617908    -0.05700
C1106       C  0.84263978  0.95769200  0.89540358    -0.33100
C1107       C  0.86947661  0.00063878  0.90288462     0.36100
C1108       C  0.90985529  0.02411211  0.89055118    -0.06100
C1109       C  0.92048771  0.00610711  0.86859505    -0.33000
C1110       C  0.89440604  0.96291080  0.86167155     0.36000
H1111       H  0.81369782  0.93867638  0.90711688     0.16400
O1112       O  0.85788178  0.01787035  0.92403933    -0.60500
H1113       H  0.95082420  0.02465105  0.85825367     0.16400
O1114       O  0.90830773  0.94448374  0.84258153    -0.60600
H1115       H  0.93644344  0.94933157  0.84929361     0.43400
H1116       H  0.84370568  0.03236866  0.91522816     0.43300
C1117       C  0.89697980  0.25841358  0.93650654    -0.05700
C1118       C  0.92701836  0.27449243  0.91487138    -0.33100
C1119       C  0.94471785  0.25100188  0.90370670     0.36100
C1120       C  0.93267740  0.21043696  0.91396813    -0.06100
C1121       C  0.89980731  0.19246026  0.93378070    -0.33000
C1122       C  0.88150850  0.21595692  0.94480291     0.36000
H1123       H  0.93890059  0.30668374  0.90738981     0.16400
O1124       O  0.97735185  0.26997079  0.88501284    -0.60500
H1125       H  0.89105563  0.16155852  0.94246140     0.16400
O1126       O  0.85188244  0.19863331  0.96536139    -0.60600
H1127       H  0.82368969  0.18438221  0.95596849     0.43400
H1128       H  0.00387441  0.28618150  0.89601053     0.43300
C1129       C  0.12985742  0.19878026  0.98516588    -0.05700
C1130       C  0.11835943  0.20946015  0.01011546    -0.47500
C1131       C  0.13226402  0.20105100  0.03475912     0.36100
C1132       C  0.15968596  0.18361579  0.03442863    -0.06100
C1133       C  0.17628434  0.17897742  0.00944773    -0.33000
C1134       C  0.16063918  0.18552306  0.98473746     0.36000
H1135       H  0.09376365  0.21857710  0.01066106     0.16400
O1136       O  0.11462389  0.20465126  0.05885903    -0.60500
H1137       H  0.19728006  0.16538640  0.00899038     0.16400
O1138       O  0.17214322  0.17475093  0.96048460    -0.60600
H1139       H  0.15283381  0.14349390  0.95843467     0.43400
H1140       H  0.12284320  0.23523758  0.06046129     0.43300
C1141       C  0.44817684  0.73825454  0.32490433    -0.05700
C1142       C  0.41027880  0.72637573  0.33928728    -0.33100
C1143       C  0.38455173  0.74421430  0.33288800     0.36100
C1144       C  0.39577913  0.77351513  0.31105883    -0.06100
C1145       C  0.43597727  0.78901420  0.29873994    -0.33000
C1146       C  0.46273962  0.77247619  0.30621403     0.36000
H1147       H  0.39805493  0.69965347  0.35330987     0.16400
O1148       O  0.34582794  0.72868743  0.34585674    -0.60500
H1149       H  0.44597018  0.81276303  0.28274872     0.16400
O1150       O  0.50081635  0.78632508  0.29274047    -0.60600
H1151       H  0.52151666  0.81302480  0.30225468     0.43400
H1152       H  0.35196761  0.74649099  0.36255933     0.43300
C1153       C  0.48597717  0.62244052  0.19375508    -0.05700
C1154       C  0.49163491  0.58780013  0.18725412    -0.33100
C1155       C  0.47486480  0.56530929  0.16280746     0.36100
C1156       C  0.45280093  0.57821311  0.14450012    -0.06100
C1157       C  0.45288215  0.61657753  0.14957628    -0.33000
C1158       C  0.46896990  0.63844566  0.17410622     0.36000
H1159       H  0.50559190  0.57591597  0.20207012     0.16400
O1160       O  0.47772222  0.52924699  0.15795397    -0.60500
H1161       H  0.43700327  0.62770135  0.13571813     0.16400
O1162       O  0.46481443  0.67359619  0.17965486    -0.60600
H1163       H  0.49223823  0.69843368  0.17371384     0.43400
H1164       H  0.45581741  0.50689863  0.16992700     0.43300
C1165       C  0.51060740  0.26629000  0.20755902    -0.05700
C1166       C  0.49832712  0.28718815  0.22686668    -0.33100
C1167       C  0.52395494  0.33110543  0.23170530     0.36100
C1168       C  0.56158316  0.35488387  0.21640903    -0.06100
C1169       C  0.57015925  0.33507177  0.19432371    -0.33000
C1170       C  0.54533380  0.29083548  0.19016967     0.36000
H1171       H  0.47178095  0.26863836  0.24054389     0.16400
O1172       O  0.51395602  0.34959594  0.25292523    -0.60500
H1173       H  0.59882162  0.35295827  0.18213482     0.16400
O1174       O  0.55791209  0.27130291  0.17104444    -0.60600
H1175       H  0.57930297  0.26601619  0.18043902     0.43400
H1176       H  0.50099188  0.36533463  0.24421577     0.43300
C1177       C  0.55596696  0.58902332  0.27302217    -0.05700
C1178       C  0.57991892  0.60386195  0.24864731    -0.33100
C1179       C  0.59560662  0.58048519  0.23492779     0.36100
C1180       C  0.58840299  0.54141786  0.24546677    -0.06100
C1181       C  0.56169512  0.52449447  0.26857237    -0.33000
C1182       C  0.54513931  0.54787855  0.28226683     0.36000
H1183       H  0.58868224  0.63510733  0.24063769     0.16400
O1184       O  0.62216985  0.59843147  0.21288208    -0.60500
H1185       H  0.55659733  0.49474126  0.27726166     0.16400
O1186       O  0.52112940  0.53150274  0.30547432    -0.60600
H1187       H  0.54188437  0.54330124  0.32081475     0.43400
H1188       H  0.60272815  0.59270111  0.19709595     0.43300
C1189       C  0.76756262  0.49031612  0.31391669    -0.05700
C1190       C  0.76034980  0.50414491  0.33930528    -0.33100
C1191       C  0.77611965  0.49673883  0.36344276     0.36100
C1192       C  0.80119243  0.47688649  0.36230716    -0.06100
C1193       C  0.81047845  0.46492991  0.33696054    -0.33000
C1194       C  0.79268681  0.47039934  0.31286868     0.36000
H1195       H  0.73980374  0.51818185  0.34081780     0.16400
O1196       O  0.76474076  0.50640067  0.38820724    -0.60500
H1197       H  0.82927225  0.44892932  0.33605085     0.16400
O1198       O  0.79918663  0.45538702  0.28863871    -0.60600
H1199       H  0.77776915  0.42444751  0.28837500     0.43400
H1200       H  0.77120242  0.53649652  0.38701135     0.43300
C1201       C  0.83933838  0.66343187  0.16703175    -0.05700
C1202       C  0.84895891  0.65181828  0.19242329    -0.33100
C1203       C  0.81643544  0.62263321  0.20968808     0.36100
C1204       C  0.77306043  0.60448010  0.20189986    -0.06100
C1205       C  0.76344951  0.61673153  0.17673357    -0.33000
C1206       C  0.79589068  0.64595123  0.15952514     0.36000
H1207       H  0.88198280  0.66496096  0.19888199     0.16400
O1208       O  0.82761642  0.61170749  0.23391127    -0.60500
H1209       H  0.73044688  0.60348238  0.17018643     0.16400
O1210       O  0.78452923  0.65684814  0.13534633    -0.60600
H1211       H  0.78180062  0.68231452  0.13970338     0.43400
H1212       H  0.83309426  0.58801507  0.22925369     0.43300
C1213       C  0.05725195  0.90713240  0.14233219    -0.05700
C1214       C  0.09371550  0.93168160  0.12630944    -0.33100
C1215       C  0.11979951  0.97580584  0.13117604     0.36100
C1216       C  0.10810227  0.99677899  0.15093566    -0.06100
C1217       C  0.07361794  0.97186181  0.16829257    -0.33000
C1218       C  0.04916329  0.92729472  0.16470256     0.36000
H1219       H  0.10114796  0.91699338  0.10937152     0.16400
O1220       O  0.15454241  0.99902176  0.11470587    -0.60500
H1221       H  0.06357699  0.98728129  0.18333178     0.16400
O1222       O  0.01443730  0.90458620  0.18134269    -0.60600
H1223       H  0.02527185  0.89438243  0.19653878     0.43400
H1224       H  0.17866447  0.99793473  0.12375399     0.43300
C1225       C  0.83934392  0.77010134  0.05583659    -0.05700
C1226       C  0.81577200  0.73411912  0.03883754    -0.33100
C1227       C  0.80017632  0.73832229  0.01349780     0.36100
C1228       C  0.80791928  0.77874290  0.00525056    -0.06100
C1229       C  0.82606923  0.81310416  0.02373229    -0.33000
C1230       C  0.84222181  0.80930345  0.04872728     0.36000
H1231       H  0.81286692  0.70357102  0.04400600     0.16400
O1232       O  0.78224341  0.70420693  0.99583942    -0.60500
H1233       H  0.83101487  0.84421562  0.01779780     0.16400
O1234       O  0.86467875  0.84528603  0.06452136    -0.60600
H1235       H  0.89378671  0.86068528  0.05638802     0.43400
H1236       H  0.75084404  0.69191929  0.99788286     0.43300
C1237       C  0.19076665  0.54035302  0.03764163    -0.05700
C1238       C  0.17401043  0.50511181  0.05545225    -0.33100
C1239       C  0.19821931  0.48565166  0.06265364     0.36100
C1240       C  0.23879287  0.50002768  0.05091056    -0.06100
C1241       C  0.25278842  0.53140693  0.03035726    -0.33000
C1242       C  0.22947720  0.55196214  0.02402781     0.36000
H1243       H  0.14435071  0.49589189  0.06625419     0.16400
O1244       O  0.18254542  0.45364185  0.08171193    -0.60500
H1245       H  0.28394052  0.54291510  0.02096710     0.16400
O1246       O  0.24747496  0.58691887  0.00718000    -0.60600
H1247       H  0.23155387  0.57691800  0.98968790     0.43400
H1248       H  0.19345340  0.46822225  0.09953238     0.43300
C1249       C  0.06286784  0.67773176  0.07876230    -0.05700
C1250       C  0.08233731  0.70953732  0.09907955    -0.33100
C1251       C  0.05902443  0.72615745  0.11283627     0.36100
C1252       C  0.01545720  0.71072052  0.10648083    -0.06100
C1253       C  0.99716715  0.68056013  0.08502729    -0.33000
C1254       C  0.02018874  0.66410526  0.07148502     0.36000
H1255       H  0.11473366  0.71934968  0.10564394     0.16400
O1256       O  0.07862763  0.75598990  0.13311782    -0.60500
H1257       H  0.96417716  0.66866002  0.07889091     0.16400
O1258       O  0.00012661  0.63336237  0.05166993    -0.60600
H1259       H  0.98353994  0.60608187  0.06169435     0.43400
H1260       H  0.07598934  0.73929477  0.14980094     0.43300
C1261       C  0.96018760  0.43601330  0.99598793    -0.05700
C1262       C  0.97683805  0.47885035  0.98859578    -0.33100
C1263       C  0.00544016  0.51179576  0.00559495     0.36100
C1264       C  0.01876637  0.50247208  0.03060793    -0.06100
C1265       C  0.00256304  0.45951872  0.03794475    -0.33000
C1266       C  0.97359183  0.42638954  0.02084917     0.36000
H1267       H  0.96690180  0.48709462  0.96973090     0.16400
O1268       O  0.01988945  0.55310245  0.99743189    -0.60500
H1269       H  0.01261959  0.45151750  0.05684920     0.16400
O1270       O  0.95866587  0.38485725  0.02869359    -0.60600
H1271       H  0.98054288  0.37768646  0.02223807     0.43400
H1272       H  0.99942059  0.56106924  0.00543573     0.43300
C1273       C  0.14464561  0.64765907  0.17005936    -0.05700
C1274       C  0.13709677  0.68078859  0.17769674    -0.33100
C1275       C  0.15281082  0.70191593  0.20272043     0.36100
C1276       C  0.17714848  0.69030603  0.21990563    -0.06100
C1277       C  0.17838849  0.65284590  0.21397428    -0.33000
C1278       C  0.16226332  0.63153379  0.18924311     0.36000
H1279       H  0.12217053  0.69246866  0.16346906     0.16400
O1280       O  0.14751585  0.73616406  0.20895660    -0.60500
H1281       H  0.19548397  0.64228579  0.22720071     0.16400
O1282       O  0.16708779  0.59697218  0.18301370    -0.60600
H1283       H  0.13942947  0.57161877  0.18803890     0.43400
H1284       H  0.12051067  0.72402089  0.21960493     0.43300
C1285       C  0.86021373  0.87535048  0.36691033    -0.05700
C1286       C  0.90033944  0.88858966  0.35515354    -0.33100
C1287       C  0.92387632  0.86847114  0.36179176     0.36100
C1288       C  0.90810111  0.83523166  0.38132584    -0.06100
C1289       C  0.86621903  0.81932979  0.39120053    -0.33000
C1290       C  0.84175656  0.83830011  0.38332928     0.36000
H1291       H  0.91547093  0.91749822  0.34301197     0.16400
O1292       O  0.96465188  0.88531809  0.35168044    -0.60500
H1293       H  0.85313751  0.79341289  0.40582187     0.16400
O1294       O  0.80197697  0.82378345  0.39461705    -0.60600
H1295       H  0.78144140  0.80520490  0.38040309     0.43400
H1296       H  0.96136171  0.87069015  0.33389882     0.43300
C1297       C  0.68582935  0.83069989  0.36527437    -0.05700
C1298       C  0.67917774  0.84014625  0.33837929    -0.33100
C1299       C  0.64706433  0.80922411  0.32166203     0.36100
C1300       C  0.62059920  0.76751644  0.33154975    -0.06100
C1301       C  0.62746028  0.75792932  0.35839293    -0.33000
C1302       C  0.65975582  0.78889162  0.37509287     0.36000
H1303       H  0.69900109  0.87187706  0.33010387     0.16400
O1304       O  0.64239155  0.82018248  0.29557804    -0.60500
H1305       H  0.60757631  0.72620492  0.36665470     0.16400
O1306       O  0.66457671  0.77810679  0.40119020    -0.60600
H1307       H  0.68550172  0.76781737  0.39963347     0.43400
H1308       H  0.62215061  0.83130236  0.29720574     0.43300
C1309       C  0.82357873  0.97859946  0.50266518    -0.05700
C1310       C  0.84840551  0.96762710  0.51927921    -0.33100
C1311       C  0.86480612  0.98829187  0.54416428     0.36100
C1312       C  0.85645131  0.02085895  0.55294892    -0.06100
C1313       C  0.82773009  0.02853968  0.53757978    -0.33000
C1314       C  0.81096494  0.00729606  0.51263159     0.36000
H1315       H  0.85723406  0.94447170  0.51217660     0.16400
O1316       O  0.89140619  0.97836281  0.55865624    -0.60500
H1317       H  0.82046236  0.05308697  0.54394508     0.16400
O1318       O  0.78599562  0.01795197  0.49700002    -0.60600
H1319       H  0.75773298  0.00458645  0.50625215     0.43400
H1320       H  0.91953569  0.99350974  0.54925858     0.43300
C1321       C  0.51266713  0.99475702  0.49843481    -0.05700
C1322       C  0.50582265  0.00755511  0.52442495    -0.33100
C1323       C  0.47254874  0.97938451  0.54158988     0.36100
C1324       C  0.44489532  0.93699222  0.53317746    -0.06100
C1325       C  0.45067242  0.92456587  0.50674383    -0.33000
C1326       C  0.48373251  0.95301478  0.48940815     0.36000
H1327       H  0.52656407  0.03982922  0.53174586     0.16400
O1328       O  0.46755928  0.99383843  0.56655613    -0.60500
H1329       H  0.42977767  0.89230463  0.49945877     0.16400
O1330       O  0.48804507  0.93911660  0.46408497    -0.60600
H1331       H  0.46985273  0.94526306  0.45177619     0.43400
H1332       H  0.48916410  0.99277589  0.57864771     0.43300
C1333       C  0.77838648  0.32686084  0.49212236    -0.05700
C1334       C  0.73659982  0.30977127  0.50215891    -0.33100
C1335       C  0.70702377  0.26633154  0.49842809     0.36100
C1336       C  0.71946892  0.23922556  0.48530590    -0.06100
C1337       C  0.76285644  0.25483309  0.47955694    -0.33000
C1338       C  0.79239088  0.29848232  0.48292152     0.36000
H1339       H  0.72508657  0.33087279  0.50912721     0.16400
O1340       O  0.66501204  0.25155924  0.50522583    -0.60500
H1341       H  0.77301625  0.23437237  0.46965803     0.16400
O1342       O  0.83312495  0.31426752  0.47285135    -0.60600
H1343       H  0.84905785  0.30881617  0.48735821     0.43400
H1344       H  0.66175514  0.23881670  0.52360656     0.43300
C1345       C  0.69611917  0.04657065  0.45080109    -0.05700
C1346       C  0.68582156  0.00646181  0.46075084    -0.33100
C1347       C  0.70408547  0.98369670  0.44920094     0.36100
C1348       C  0.73332384  0.00106225  0.42694533    -0.06100
C1349       C  0.74672557  0.04313776  0.41889625    -0.33000
C1350       C  0.72820175  0.06577746  0.43067179     0.36000
H1351       H  0.66066538  0.99103380  0.47586112     0.16400
O1352       O  0.69051314  0.94312417  0.45862996    -0.60500
H1353       H  0.76976537  0.05764567  0.40251460     0.16400
O1354       O  0.73887864  0.10530387  0.42071986    -0.60600
H1355       H  0.76166007  0.12590044  0.43311870     0.43400
H1356       H  0.70510471  0.94688862  0.47645011     0.43300
C1357       C  0.47320649  0.10225746  0.33566986    -0.05700
C1358       C  0.48333294  0.13049983  0.35780280    -0.33100
C1359       C  0.50140482  0.12481535  0.38151109     0.36100
C1360       C  0.50912774  0.09025325  0.38334654    -0.06100
C1361       C  0.49448886  0.05929248  0.36255929    -0.33000
C1362       C  0.47690121  0.06538877  0.33855779     0.36000
H1363       H  0.48006305  0.15874230  0.35594338     0.16400
O1364       O  0.51425203  0.15476583  0.40207047    -0.60500
H1365       H  0.50104840  0.03302947  0.36357775     0.16400
O1366       O  0.46790296  0.03776180  0.31706200    -0.60600
H1367       H  0.49548588  0.04841468  0.30721511     0.43400
H1368       H  0.54131540  0.17953212  0.39555618     0.43300
C1369       C  0.34943230  0.77262571  0.03861709    -0.05700
C1370       C  0.33007644  0.78475616  0.05919319    -0.33100
C1371       C  0.28654042  0.75874184  0.06570004     0.36100
C1372       C  0.26133723  0.72119380  0.05060018    -0.06100
C1373       C  0.27935545  0.71302166  0.02730197    -0.33000
C1374       C  0.32313036  0.73818213  0.02146721     0.36000
H1375       H  0.34975214  0.81168760  0.07235842     0.16400
O1376       O  0.26987326  0.76864304  0.08796776    -0.60500
H1377       H  0.26049506  0.68454967  0.01509450     0.16400
O1378       O  0.34088028  0.72551339  0.00121583    -0.60600
H1379       H  0.33857363  0.73951558  0.98439412     0.43400
H1380       H  0.25576136  0.78409300  0.08047147     0.43300
C1381       C  0.41800277  0.60169699  0.03934992    -0.05700
C1382       C  0.40660751  0.62630269  0.02292195    -0.33100
C1383       C  0.42456153  0.67053073  0.02740270     0.36100
C1384       C  0.45332383  0.69083804  0.04939980    -0.06100
C1385       C  0.46800780  0.66707605  0.06397906    -0.33000
C1386       C  0.45181106  0.62333348  0.05831896     0.36000
H1387       H  0.38043882  0.61053604  0.00846660     0.16400
O1388       O  0.41025895  0.69260788  0.01192027    -0.60500
H1389       H  0.49078649  0.68198674  0.08051623     0.16400
O1390       O  0.46591965  0.60099183  0.07367007    -0.60600
H1391       H  0.48505967  0.59608971  0.06140880     0.43400
H1392       H  0.38308698  0.68713965  0.02064921     0.43300
C1393       C  0.50001339  0.80353993  0.16988517    -0.05700
C1394       C  0.46672054  0.78848028  0.18910986    -0.33100
C1395       C  0.47020757  0.77181189  0.21409099     0.36100
C1396       C  0.50726963  0.76911384  0.21981766    -0.06100
C1397       C  0.54234625  0.78848629  0.20165763    -0.33000
C1398       C  0.53887982  0.80571157  0.17681796     0.36000
H1399       H  0.43680227  0.78742653  0.18407831     0.16400
O1400       O  0.43548480  0.75419305  0.23129829    -0.60500
H1401       H  0.57140181  0.78728414  0.20562438     0.16400
O1402       O  0.57176587  0.82005865  0.15831363    -0.60600
H1403       H  0.58893510  0.85129417  0.16156374     0.43400
H1404       H  0.43232949  0.77849287  0.23797385     0.43300
C1405       C  0.32857653  0.81977886  0.19110602    -0.05700
C1406       C  0.31249961  0.78703915  0.17150936    -0.33100
C1407       C  0.33531097  0.79071155  0.14766597     0.36100
C1408       C  0.37488812  0.82811316  0.14289898    -0.06100
C1409       C  0.38851991  0.86274599  0.16131134    -0.33000
C1410       C  0.36554066  0.85872738  0.18536023     0.36000
H1411       H  0.28360763  0.75702785  0.17568820     0.16400
O1412       O  0.32023620  0.75609165  0.13042805    -0.60500
H1413       H  0.41870748  0.89187851  0.15816418     0.16400
O1414       O  0.38197344  0.89105982  0.20436905    -0.60600
H1415       H  0.37356808  0.91188463  0.19785420     0.43400
H1416       H  0.32859500  0.73638999  0.13903607     0.43300
C1417       C  0.94733263  0.05946482  0.16385111    -0.05700
C1418       C  0.96599557  0.09660365  0.14770466    -0.33100
C1419       C  0.01011511  0.11799180  0.14186921     0.36100
C1420       C  0.03647285  0.10333832  0.15321059    -0.06100
C1421       C  0.01846984  0.06928369  0.17190531    -0.33000
C1422       C  0.97418473  0.04662768  0.17656097     0.36000
H1423       H  0.94564918  0.10609918  0.13699855     0.16400
O1424       O  0.02642313  0.15096524  0.12348796    -0.60500
H1425       H  0.03802099  0.05716302  0.18071456     0.16400
O1426       O  0.95688615  0.00948716  0.19137853    -0.60600
H1427       H  0.95720144  0.98783798  0.17891745     0.43400
H1428       H  0.03695199  0.17723606  0.13473839     0.43300
C1429       C  0.83864852  0.88192314  0.15072483    -0.05700
C1430       C  0.86984064  0.89389873  0.17141324    -0.33100
C1431       C  0.89056654  0.87023784  0.17606398     0.36100
C1432       C  0.87896101  0.83295369  0.16076606    -0.06100
C1433       C  0.84361371  0.81785374  0.14290669    -0.33000
C1434       C  0.82426202  0.84264660  0.13725643     0.36000
H1435       H  0.88136820  0.92406954  0.18206307     0.16400
O1436       O  0.92575892  0.88685627  0.19289383    -0.60500
H1437       H  0.83423019  0.78922204  0.13090525     0.16400
O1438       O  0.79256595  0.82905857  0.11786391    -0.60600
H1439       H  0.80767851  0.84036943  0.10026247     0.43400
H1440       H  0.91668195  0.86802988  0.20916318     0.43300
C1441       C  0.61234821  0.88372419  0.07965598    -0.05700
C1442       C  0.62446303  0.86238401  0.09879459    -0.33100
C1443       C  0.66435141  0.88429935  0.11263312     0.36100
C1444       C  0.69203830  0.92823847  0.10771157    -0.06100
C1445       C  0.68062637  0.94789058  0.08696804    -0.33000
C1446       C  0.64174289  0.92622970  0.07315403     0.36000
H1447       H  0.60192221  0.82967925  0.10431750     0.16400
O1448       O  0.67521606  0.86284098  0.13120827    -0.60500
H1449       H  0.70143608  0.98112889  0.08171487     0.16400
O1450       O  0.63101496  0.94827210  0.05492048    -0.60600
H1451       H  0.63892507  0.94209556  0.03672694     0.43400
H1452       H  0.66577403  0.86799227  0.14918021     0.43300
C1453       C  0.92975865  0.09438930  0.05904322    -0.05700
C1454       C  0.92005398  0.12173963  0.04390017    -0.33100
C1455       C  0.94019851  0.13844012  0.01898250     0.36100
C1456       C  0.97047308  0.12799078  0.00923819    -0.06100
C1457       C  0.98342971  0.10447487  0.02541270    -0.33000
C1458       C  0.96357883  0.08789408  0.05038668     0.36000
H1459       H  0.89434510  0.12735436  0.05025425     0.16400
O1460       O  0.92701960  0.16113346  0.00313242    -0.60500
H1461       H  0.00746619  0.09707743  0.01795309     0.16400
O1462       O  0.97415565  0.06151387  0.06442174    -0.60600
H1463       H  0.99765809  0.08064150  0.07694316     0.43400
H1464       H  0.94905011  0.19153953  0.00581914     0.43300
C1465       C  0.79807099  0.95084962  0.02957852    -0.05700
C1466       C  0.75871462  0.91486247  0.02317062    -0.33100
C1467       C  0.75392503  0.89209068  0.99878092     0.36100
C1468       C  0.78892037  0.90561689  0.98043309    -0.06100
C1469       C  0.82621983  0.94477334  0.98552459    -0.33000
C1470       C  0.83095467  0.96718086  0.00984334     0.36000
H1471       H  0.73283970  0.90250272  0.03794009     0.16400
O1472       O  0.71564211  0.85562953  0.99377721    -0.60500
H1473       H  0.85323068  0.95654734  0.97166197     0.16400
O1474       O  0.86921948  0.00355652  0.01504487    -0.60600
H1475       H  0.86429109  0.02754548  0.01036578     0.43400
H1476       H  0.71569964  0.83345244  0.00570920     0.43300
C1477       C  0.36960218  0.55716937  0.31364047    -0.05700
C1478       C  0.35124087  0.56915622  0.33495539    -0.33100
C1479       C  0.30740201  0.54495501  0.34084883     0.36100
C1480       C  0.28136910  0.50741352  0.32597230    -0.06100
C1481       C  0.30091465  0.49242086  0.30739225    -0.33000
C1482       C  0.34451640  0.51753047  0.30064132     0.36000
H1483       H  0.37000117  0.59955894  0.34531839     0.16400
O1484       O  0.28930468  0.56123134  0.35846545    -0.60500
H1485       H  0.28127299  0.46372555  0.29557124     0.16400
O1486       O  0.36146824  0.50452996  0.28007343    -0.60600
H1487       H  0.36505968  0.48124162  0.28805939     0.43400
H1488       H  0.28841822  0.54806882  0.37639624     0.43300
C1489       C  0.17683039  0.58217365  0.31121895    -0.05700
C1490       C  0.20603395  0.59977814  0.33312209    -0.33100
C1491       C  0.22590345  0.64355286  0.33924097     0.36100
C1492       C  0.21565737  0.67026674  0.32401591    -0.06100
C1493       C  0.18194194  0.65146949  0.30490447    -0.33000
C1494       C  0.16344193  0.60801599  0.29786588     0.36000
H1495       H  0.21677880  0.58045951  0.34379464     0.16400
O1496       O  0.25925549  0.66080468  0.35753213    -0.60500
H1497       H  0.17371600  0.67157941  0.29288466     0.16400
O1498       O  0.13474784  0.59200347  0.27665895    -0.60600
H1499       H  0.10643116  0.58319556  0.28502620     0.43400
H1500       H  0.24562528  0.65419347  0.37583452     0.43300
C1501       C  0.30963480  0.45585816  0.17375045    -0.05700
C1502       C  0.32405893  0.49235290  0.19034445    -0.33100
C1503       C  0.30392567  0.49072015  0.21504668     0.36100
C1504       C  0.26830302  0.45193134  0.22330417    -0.06100
C1505       C  0.25819928  0.41420591  0.20863725    -0.33000
C1506       C  0.27860806  0.41603107  0.18383006     0.36000
H1507       H  0.34902602  0.52314142  0.18308708     0.16400
O1508       O  0.31560901  0.52818875  0.22884296    -0.60500
H1509       H  0.23169665  0.38375066  0.21501124     0.16400
O1510       O  0.26541804  0.37952783  0.16863710    -0.60600
H1511       H  0.24084339  0.37642542  0.15764097     0.43400
H1512       H  0.34481633  0.53776110  0.23600660     0.43300
C1513       C  0.12878704  0.50289370  0.14039666    -0.05700
C1514       C  0.16758374  0.50398754  0.14611046    -0.33100
C1515       C  0.17288977  0.48725359  0.17054525     0.36100
C1516       C  0.13905877  0.46883502  0.18952564    -0.06100
C1517       C  0.09857790  0.46223473  0.18224401    -0.33000
C1518       C  0.09313176  0.47886242  0.15767958     0.36000
H1519       H  0.19514612  0.52124106  0.13293539     0.16400
O1520       O  0.21183229  0.49053435  0.17629767    -0.60500
H1521       H  0.07206983  0.44718121  0.19647365     0.16400
O1522       O  0.05381181  0.47462611  0.15201066    -0.60600
H1523       H  0.03783863  0.44696732  0.14217291     0.43400
H1524       H  0.23047465  0.52039386  0.18257975     0.43300
C1525       C  0.68238059  0.20525443  0.21538441    -0.05700
C1526       C  0.66317217  0.17832239  0.23790090    -0.33100
C1527       C  0.61896850  0.15908629  0.24248583     0.36100
C1528       C  0.59287508  0.16551350  0.22385207    -0.06100
C1529       C  0.61150710  0.18821568  0.19956143    -0.33000
C1530       C  0.65608273  0.20885643  0.19558959     0.36000
H1531       H  0.68309145  0.17535921  0.25333783     0.16400
O1532       O  0.60225142  0.13697427  0.26628100    -0.60500
H1533       H  0.59213824  0.19355195  0.18483587     0.16400
O1534       O  0.67389359  0.23533927  0.17356610    -0.60600
H1535       H  0.67686184  0.26313862  0.17926013     0.43400
H1536       H  0.59258971  0.10672187  0.26165790     0.43300
C1537       C  0.82516941  0.17413157  0.19830846    -0.05700
C1538       C  0.80596844  0.13276152  0.20918050    -0.33100
C1539       C  0.80267019  0.09833357  0.19378572     0.36100
C1540       C  0.81858287  0.10456609  0.16667890    -0.06100
C1541       C  0.83851695  0.14611760  0.15596285    -0.33000
C1542       C  0.84169014  0.18054828  0.17134472     0.36000
H1543       H  0.79301518  0.12681750  0.22972284     0.16400
O1544       O  0.78316890  0.05856892  0.20548340    -0.60500
H1545       H  0.85145225  0.15204799  0.13541523     0.16400
O1546       O  0.86151525  0.22041872  0.15977364    -0.60600
H1547       H  0.83877104  0.22201486  0.14924128     0.43400
H1548       H  0.80576724  0.05769845  0.21664591     0.43300
C1549       C  0.74521060  0.43401392  0.20270575    -0.05700
C1550       C  0.78182780  0.45113907  0.21958355    -0.33100
C1551       C  0.80242274  0.42745854  0.22551309     0.36100
C1552       C  0.78636176  0.38618649  0.21456155    -0.06100
C1553       C  0.75352754  0.37184200  0.19481492    -0.33000
C1554       C  0.73295631  0.39528374  0.18896013     0.36000
H1555       H  0.79158063  0.48075111  0.23056575     0.16400
O1556       O  0.83672319  0.44393808  0.24303224    -0.60500
H1557       H  0.74107808  0.34048616  0.18561246     0.16400
O1558       O  0.69713195  0.37726814  0.17266187    -0.60600
H1559       H  0.70785444  0.38745637  0.15394113     0.43400
H1560       H  0.86218496  0.46035058  0.23127080     0.43300
C1561       C  0.94916079  0.35947048  0.23880682    -0.05700
C1562       C  0.95715150  0.38442772  0.26263418    -0.33100
C1563       C  0.99696033  0.40199918  0.27630326     0.36100
C1564       C  0.02912057  0.39408964  0.26624457    -0.06100
C1565       C  0.02199030  0.37233670  0.24102640    -0.33000
C1566       C  0.98270890  0.35533014  0.22740027     0.36000
H1567       H  0.93122141  0.38707937  0.27196015     0.16400
O1568       O  0.00233186  0.42281542  0.30074616    -0.60500
H1569       H  0.04628158  0.36637130  0.23234966     0.16400
O1570       O  0.97601411  0.33096201  0.20435873    -0.60600
H1571       H  0.98358455  0.35116518  0.18889294     0.43400
H1572       H  0.00819667  0.45189918  0.29582483     0.43300
C1573       C  0.72941922  0.18370776  0.31733254    -0.05700
C1574       C  0.68557142  0.17104693  0.31841465    -0.33100
C1575       C  0.66094970  0.15060662  0.34154789     0.36100
C1576       C  0.68042071  0.14421895  0.36462631    -0.06100
C1577       C  0.72332486  0.15418783  0.36304292    -0.33000
C1578       C  0.74731871  0.17214247  0.33921981     0.36000
H1579       H  0.67065464  0.17870418  0.30182597     0.16400
O1580       O  0.61831745  0.13893788  0.34195054    -0.60500
H1581       H  0.73863704  0.14907210  0.38049071     0.16400
O1582       O  0.78908721  0.18098122  0.33845926    -0.60600
H1583       H  0.78791850  0.15515070  0.33036190     0.43400
H1584       H  0.61753914  0.16507959  0.34741221     0.43300
C1585       C  0.86587542  0.33722740  0.33282182    -0.05700
C1586       C  0.89698513  0.38040934  0.33554237    -0.33100
C1587       C  0.90263477  0.40128242  0.36075339     0.36100
C1588       C  0.87655559  0.37870757  0.38312544    -0.06100
C1589       C  0.84945897  0.33450281  0.38107717    -0.33000
C1590       C  0.84410505  0.31370913  0.35610192     0.36000
H1591       H  0.91387803  0.39882259  0.31773871     0.16400
O1592       O  0.92966154  0.44461330  0.36239930    -0.60500
H1593       H  0.82888013  0.31692436  0.39806010     0.16400
O1594       O  0.81390061  0.27131788  0.35391117    -0.60600
H1595       H  0.82786041  0.25588087  0.36166093     0.43400
H1596       H  0.91260325  0.45761938  0.35583352     0.43300
C1597       C  0.61793953  0.39412891  0.49076335    -0.05700
C1598       C  0.63760250  0.42489697  0.47005408    -0.33100
C1599       C  0.68123330  0.44173988  0.46370923     0.36100
C1600       C  0.70602105  0.42838580  0.47846390    -0.06100
C1601       C  0.68771971  0.40162915  0.50117316    -0.33000
C1602       C  0.64409629  0.38477729  0.50747759     0.36000
H1603       H  0.61808189  0.43222481  0.45670193     0.16400
O1604       O  0.69798597  0.46728638  0.44118601    -0.60500
H1605       H  0.70653997  0.39130156  0.51286903     0.16400
O1606       O  0.62632571  0.35549220  0.52810594    -0.60600
H1607       H  0.63134348  0.37272424  0.54496844     0.43400
H1608       H  0.70758239  0.49670148  0.44781161     0.43300
C1609       C  0.50568855  0.21178759  0.48543949    -0.05700
C1610       C  0.48348649  0.17046375  0.47454722    -0.33100
C1611       C  0.49890354  0.14214161  0.47882641     0.36100
C1612       C  0.53848752  0.15658788  0.49234994    -0.06100
C1613       C  0.55546027  0.19417617  0.50772278    -0.33000
C1614       C  0.53987743  0.22244783  0.50387644     0.36000
H1615       H  0.45620259  0.16128331  0.46119804     0.16400
O1616       O  0.47951540  0.10341078  0.46558510    -0.60500
H1617       H  0.58488590  0.20488846  0.51906440     0.16400
O1618       O  0.56186575  0.26247682  0.51531279    -0.60600
H1619       H  0.58701422  0.27873505  0.50324320     0.43400
H1620       H  0.46468327  0.08197199  0.48015248     0.43300
C1621       C  0.62487409  0.45977420  0.33709245    -0.05700
C1622       C  0.63918089  0.43670558  0.35290531    -0.33100
C1623       C  0.61892977  0.41704494  0.37718600     0.36100
C1624       C  0.58373356  0.42060995  0.38650077    -0.06100
C1625       C  0.57239582  0.44761033  0.37228041    -0.33000
C1626       C  0.59280141  0.46720353  0.34766229     0.36000
H1627       H  0.66464899  0.43142686  0.34548271     0.16400
O1628       O  0.63071352  0.39041799  0.38972436    -0.60500
H1629       H  0.54579583  0.45132458  0.37928116     0.16400
O1630       O  0.57928872  0.49100355  0.33335226    -0.60600
H1631       H  0.55219791  0.46985492  0.32438130     0.43400
H1632       H  0.65325128  0.40871979  0.40301130     0.43300
C1633       C  0.45326706  0.27111879  0.36424003    -0.05700
C1634       C  0.41522346  0.23284538  0.35948769    -0.33100
C1635       C  0.40915409  0.21091408  0.33467935     0.36100
C1636       C  0.44150462  0.22770892  0.31437872    -0.06100
C1637       C  0.47675390  0.26890490  0.31808751    -0.33000
C1638       C  0.48285369  0.29042307  0.34286060     0.36000
H1639       H  0.39178423  0.21834224  0.37565313     0.16400
O1640       O  0.37263585  0.17216607  0.33110552    -0.60500
H1641       H  0.50161028  0.28310119  0.30269743     0.16400
O1642       O  0.51949114  0.32900577  0.34672762    -0.60600
H1643       H  0.51129025  0.35087864  0.34241896     0.43400
H1644       H  0.37682012  0.15167924  0.34237107     0.43300
C1645       C  0.92670593  0.05559400  0.38034967    -0.05700
C1646       C  0.94703306  0.04572441  0.35916888    -0.33100
C1647       C  0.99142473  0.07057840  0.35502738     0.36100
C1648       C  0.01593167  0.10664875  0.37152764    -0.06100
C1649       C  0.99448221  0.12002478  0.38973435    -0.33000
C1650       C  0.95039889  0.09420733  0.39475985     0.36000
H1651       H  0.92942048  0.01612030  0.34778390     0.16400
O1652       O  0.01128018  0.05620496  0.33741323    -0.60500
H1653       H  0.01275918  0.14792667  0.40249936     0.16400
O1654       O  0.93124130  0.10602208  0.41459091    -0.60600
H1655       H  0.93392020  0.09287198  0.43169298     0.43400
H1656       H  0.01280733  0.07033088  0.31976281     0.43300
C1657       C  0.15141053  0.27760671  0.36695983    -0.05700
C1658       C  0.18021280  0.29490055  0.34493931    -0.33100
C1659       C  0.17867422  0.32443358  0.32698499     0.36100
C1660       C  0.14787276  0.33744291  0.33070143    -0.06100
C1661       C  0.11913668  0.32024363  0.35279164    -0.33000
C1662       C  0.12051119  0.29050182  0.37064909     0.36000
H1663       H  0.20442645  0.28575274  0.34167846     0.16400
O1664       O  0.20855980  0.34153315  0.30652124    -0.60500
H1665       H  0.09506892  0.32955884  0.35616317     0.16400
O1666       O  0.09106003  0.27388035  0.39139319    -0.60600
H1667       H  0.06562312  0.24902955  0.38318953     0.43400
H1668       H  0.19633182  0.32107905  0.29105564     0.43300
C1669       C  0.12168696  0.03076128  0.39325960    -0.05700
C1670       C  0.09776832  0.01047824  0.36951323    -0.33100
C1671       C  0.07913865  0.96597841  0.36576261     0.36100
C1672       C  0.08474307  0.94109595  0.38568551    -0.06100
C1673       C  0.11278957  0.96219439  0.40762727    -0.33000
C1674       C  0.13087646  0.00640413  0.41163467     0.36000
H1675       H  0.09030737  0.02848289  0.35497500     0.16400
O1676       O  0.05211048  0.94681481  0.34406384    -0.60500
H1677       H  0.11751721  0.94366265  0.42320165     0.16400
O1678       O  0.15486717  0.02483403  0.43466599    -0.60600
H1679       H  0.18511426  0.03819977  0.42856085     0.43400
H1680       H  0.06936255  0.94137943  0.33046346     0.43300
C1681       C  0.35117512  0.24828956  0.45615336    -0.05700
C1682       C  0.34096582  0.22298804  0.43230176    -0.33100
C1683       C  0.30141833  0.20853690  0.41869493     0.36100
C1684       C  0.27165181  0.21999416  0.42868569    -0.06100
C1685       C  0.28129188  0.24329233  0.45343220    -0.33000
C1686       C  0.32015740  0.25687701  0.46716113     0.36000
H1687       H  0.36506727  0.21728581  0.42300637     0.16400
O1688       O  0.29354970  0.18577774  0.39482027    -0.60500
H1689       H  0.25888273  0.25197679  0.46208319     0.16400
O1690       O  0.32860151  0.28069895  0.49066488    -0.60600
H1691       H  0.34039561  0.31065175  0.48451159     0.43400
H1692       H  0.30689990  0.20759361  0.38027362     0.43300
C1693       C  0.16576700  0.14802419  0.50668090    -0.05700
C1694       C  0.13329511  0.12985019  0.52634204    -0.33100
C1695       C  0.13916684  0.11235766  0.55018595     0.36100
C1696       C  0.17806038  0.11237646  0.55440241    -0.06100
C1697       C  0.21223894  0.13503017  0.53610728    -0.33000
C1698       C  0.20621672  0.15270562  0.51225553     0.36000
H1699       H  0.10214494  0.12670316  0.52237846     0.16400
O1700       O  0.10498982  0.09112663  0.56752192    -0.60500
H1701       H  0.24264786  0.13610709  0.53910493     0.16400
O1702       O  0.23875938  0.17093075  0.49353160    -0.60600
H1703       H  0.23397190  0.14755112  0.48072692     0.43400
H1704       H  0.10135522  0.11370430  0.57666108     0.43300
C1705       C  0.03596913  0.16683337  0.47737973    -0.05700
C1706       C  0.04778463  0.20211492  0.49492406    -0.33100
C1707       C  0.02670483  0.19714588  0.51987403     0.36100
C1708       C  0.99337202  0.15669711  0.52730111    -0.06100
C1709       C  0.97811420  0.12296644  0.50843617    -0.33000
C1710       C  0.99925804  0.12750088  0.48374920     0.36000
H1711       H  0.07576038  0.23267570  0.49047234     0.16400
O1712       O  0.04211857  0.23054253  0.53801619    -0.60500
H1713       H  0.95186146  0.09173191  0.51391979     0.16400
O1714       O  0.98639765  0.09200033  0.46755529    -0.60600
H1715       H  0.99926410  0.07592030  0.47594790     0.43400
H1716       H  0.02290263  0.24279708  0.53604667     0.43300
C1717       C  0.70695868  0.23696900  0.96693821    -0.05700
C1718       C  0.68149045  0.20104616  0.95065295    -0.33100
C1719       C  0.63741036  0.17553430  0.95586891     0.36100
C1720       C  0.61761145  0.18700461  0.97660424    -0.06100
C1721       C  0.64333716  0.22124917  0.99392624    -0.33000
C1722       C  0.68779134  0.24545565  0.98970190     0.36000
H1723       H  0.69554949  0.19336249  0.93347149     0.16400
O1724       O  0.61333389  0.14110100  0.93927157    -0.60500
H1725       H  0.62864055  0.23093939  0.00968991     0.16400
O1726       O  0.71146108  0.27999082  0.00638642    -0.60600
H1727       H  0.72103082  0.26870450  0.02167388     0.43400
H1728       H  0.60650321  0.11566187  0.95053772     0.43300
C1729       C  0.48875480  0.94246295  0.03355311    -0.05700
C1730       C  0.47031435  0.96564879  0.04466797    -0.33100
C1731       C  0.46680860  0.99678610  0.02936758     0.36100
C1732       C  0.48225106  0.00609640  0.00214517    -0.06100
C1733       C  0.50070550  0.98293190  0.99098029    -0.33000
C1734       C  0.50412242  0.95166179  0.00629401     0.36000
H1735       H  0.45813380  0.95948009  0.06539986     0.16400
O1736       O  0.44850911  0.01821538  0.04153901    -0.60500
H1737       H  0.51267891  0.98904278  0.97019804     0.16400
O1738       O  0.52197384  0.92984367  0.99408173    -0.60600
H1739       H  0.55338732  0.94865319  0.99611354     0.43400
H1740       H  0.41720088  0.99964531  0.03879894     0.43300
C1741       C  0.50699085  0.25149951  0.99249326    -0.05700
C1742       C  0.53862670  0.26875639  0.01308832    -0.33100
C1743       C  0.56217819  0.31305506  0.01782654     0.36100
C1744       C  0.55363108  0.34089228  0.00246108    -0.06100
C1745       C  0.51770855  0.32313212  0.98504691    -0.33000
C1746       C  0.49500998  0.27898232  0.97954767     0.36000
H1747       H  0.54820520  0.24847369  0.02369820     0.16400
O1748       O  0.59652008  0.32917899  0.03533651    -0.60500
H1749       H  0.51049115  0.34403071  0.97306436     0.16400
O1750       O  0.46398487  0.26385751  0.95965364    -0.60600
H1751       H  0.43636838  0.24967582  0.96966010     0.43400
H1752       H  0.58417514  0.32730516  0.05376887     0.43300
C1753       C  0.56951907  0.13022518  0.87713194    -0.05700
C1754       C  0.57888081  0.16347836  0.85868971    -0.33100
C1755       C  0.60195635  0.16806109  0.83502208     0.36100
C1756       C  0.61714365  0.13955900  0.82937981    -0.06100
C1757       C  0.60904382  0.10682569  0.84800328    -0.33000
C1758       C  0.58499001  0.10176782  0.87174495     0.36000
H1759       H  0.56749604  0.18589801  0.86217614     0.16400
O1760       O  0.61083307  0.20168063  0.81800069    -0.60500
H1761       H  0.62072485  0.08479940  0.84391824     0.16400
O1762       O  0.57635779  0.06875221  0.88918888    -0.60600
H1763       H  0.60211539  0.07933404  0.90096904     0.43400
H1764       H  0.58428054  0.19246372  0.80719786     0.43300
C1765       C  0.41544703  0.11757106  0.87127524    -0.05700
C1766       C  0.42281535  0.09963657  0.84773028    -0.33100
C1767       C  0.41640871  0.11150492  0.82167259     0.36100
C1768       C  0.40036087  0.13981854  0.81897040    -0.06100
C1769       C  0.38622461  0.15181359  0.84240960    -0.33000
C1770       C  0.39453267  0.14170510  0.86854157     0.36000
H1771       H  0.43870943  0.08083864  0.84934950     0.16400
O1772       O  0.43077064  0.09957343  0.79910625    -0.60500
H1773       H  0.37466942  0.17438972  0.84069711     0.16400
O1774       O  0.38658324  0.15953399  0.89106006    -0.60600
H1775       H  0.35492420  0.14513674  0.89256342     0.43400
H1776       H  0.46217527  0.11937584  0.79857876     0.43300
C1777       C  0.01573975  0.85756153  0.87387464    -0.05700
C1778       C  0.99223651  0.87209290  0.85896969    -0.33100
C1779       C  0.94865884  0.85664009  0.86437378     0.36100
C1780       C  0.92784220  0.82699275  0.88567534    -0.06100
C1781       C  0.94982281  0.80845002  0.89817668    -0.33000
C1782       C  0.99312870  0.82264753  0.89172145     0.36000
H1783       H  0.00883407  0.89923295  0.84544498     0.16400
O1784       O  0.92816066  0.87469196  0.85092473    -0.60500
H1785       H  0.93392032  0.78400841  0.91353430     0.16400
O1786       O  0.01452717  0.80581917  0.90550953    -0.60600
H1787       H  0.00903610  0.78009436  0.89488723     0.43400
H1788       H  0.92004566  0.86012114  0.83289742     0.43300
C1789       C  0.08545935  0.09001378  0.87998205    -0.05700
C1790       C  0.12657486  0.10608737  0.89169848    -0.33100
C1791       C  0.14265307  0.07874658  0.89752410     0.36100
C1792       C  0.11899085  0.03581657  0.88971480    -0.06100
C1793       C  0.08199123  0.02179852  0.87360271    -0.33000
C1794       C  0.06483677  0.04854868  0.86890608     0.36000
H1795       H  0.14304623  0.13814076  0.90020544     0.16400
O1796       O  0.17930921  0.09326435  0.91279773    -0.60500
H1797       H  0.06396060  0.98869842  0.86704806     0.16400
O1798       O  0.02469579  0.03150495  0.85773281    -0.60600
H1799       H  0.02943879  0.04166215  0.83856596     0.43400
H1800       H  0.20299347  0.10437397  0.89931336     0.43300
C1801       C  0.34986271  0.05308656  0.96070698    -0.05700
C1802       C  0.33657401  0.07007634  0.93934604    -0.33100
C1803       C  0.29657226  0.04522583  0.92625186     0.36100
C1804       C  0.26949914  0.00260112  0.93440447    -0.06100
C1805       C  0.28189576  0.98725442  0.95719664    -0.33000
C1806       C  0.32150795  0.01179499  0.97000296     0.36000
H1807       H  0.35866486  0.10143904  0.93143492     0.16400
O1808       O  0.28537096  0.06219679  0.90485799    -0.60500
H1809       H  0.26146548  0.95512791  0.96469655     0.16400
O1810       O  0.33358572  0.99401824  0.99050586    -0.60600
H1811       H  0.34472515  0.97707790  0.98108771     0.43400
H1812       H  0.29740244  0.05593257  0.88835878     0.43300
C1813       C  0.15895365  0.97368708  0.00920319    -0.05700
C1814       C  0.12581270  0.96073777  0.02834094    -0.33100
C1815       C  0.12912559  0.98757876  0.04988253     0.36100
C1816       C  0.16635941  0.02791114  0.05257223    -0.06100
C1817       C  0.20149409  0.03843702  0.03523463    -0.33000
C1818       C  0.19780473  0.01165583  0.01340830     0.36000
H1819       H  0.09595310  0.93105303  0.02539684     0.16400
O1820       O  0.09519085  0.97476797  0.06749632    -0.60500
H1821       H  0.23060422  0.06903019  0.03714604     0.16400
O1822       O  0.23072177  0.02471500  0.99497092    -0.60600
H1823       H  0.22488222  0.04082046  0.98081447     0.43400
H1824       H  0.07358703  0.97895197  0.05744683     0.43300
C1825       C  0.03137934  0.81919778  0.97890510    -0.05700
C1826       C  0.04525445  0.79934636  0.99798789    -0.33100
C1827       C  0.02280516  0.78261872  0.02229931     0.36100
C1828       C  0.98581852  0.78519263  0.02748089    -0.06100
C1829       C  0.96881225  0.79962217  0.00702694    -0.33000
C1830       C  0.99099420  0.81617034  0.98259875     0.36000
H1831       H  0.07580157  0.80054320  0.99545406     0.16400
O1832       O  0.04028238  0.76925510  0.04223705    -0.60500
H1833       H  0.93968650  0.80087121  0.01080906     0.16400
O1834       O  0.97556974  0.83399994  0.96420463    -0.60600
H1835       H  0.94649346  0.81089679  0.95907637     0.43400
H1836       H  0.03214543  0.73953863  0.03710526     0.43300
C1837       C  0.28106575  0.72878323  0.82670790    -0.05700
C1838       C  0.29854048  0.76306974  0.80804310    -0.33100
C1839       C  0.34197246  0.78256364  0.79993533     0.36100
C1840       C  0.36958138  0.76982475  0.81182470    -0.06100
C1841       C  0.35317022  0.73948622  0.83307800    -0.33000
C1842       C  0.30937049  0.71818699  0.83983743     0.36000
H1843       H  0.27746994  0.77177246  0.79753603     0.16400
O1844       O  0.35636176  0.81229008  0.77942611    -0.60500
H1845       H  0.37364582  0.72946164  0.84301117     0.16400
O1846       O  0.29384785  0.68467176  0.85783626    -0.60600
H1847       H  0.29038660  0.65982695  0.84698056     0.43400
H1848       H  0.36719285  0.84020470  0.78882967     0.43300
C1849       C  0.14894605  0.76657200  0.83362113    -0.05700
C1850       C  0.13071788  0.75398326  0.85987876    -0.33100
C1851       C  0.13323820  0.78384996  0.87903124     0.36100
C1852       C  0.15393546  0.82729024  0.87209965    -0.06100
C1853       C  0.17231002  0.83995116  0.84587738    -0.33000
C1854       C  0.16981370  0.81001866  0.82670367     0.36000
H1855       H  0.11452534  0.72067957  0.86585264     0.16400
O1856       O  0.11483252  0.77000957  0.90423584    -0.60500
H1857       H  0.18839340  0.87326900  0.83994448     0.16400
O1858       O  0.18805214  0.82369739  0.80144407    -0.60600
H1859       H  0.16565814  0.82482207  0.79021410     0.43400
H1860       H  0.13781770  0.77077258  0.91586342     0.43300
C1861       C  0.16178723  0.54483276  0.81666040    -0.05700
C1862       C  0.19491929  0.55345436  0.83536035    -0.33100
C1863       C  0.20961345  0.52432305  0.83866097     0.36100
C1864       C  0.19162065  0.48719608  0.82247393    -0.06100
C1865       C  0.15211884  0.47441924  0.80931543    -0.33000
C1866       C  0.13792592  0.50376036  0.80552013     0.36000
H1867       H  0.21245982  0.58458468  0.84504779     0.16400
O1868       O  0.24580694  0.53586642  0.85387382    -0.60500
H1869       H  0.13657364  0.44472317  0.79782754     0.16400
O1870       O  0.10350602  0.49350221  0.78879840    -0.60600
H1871       H  0.07920245  0.48639360  0.80136138     0.43400
H1872       H  0.23591231  0.51685000  0.87003686     0.43300
C1873       C  0.27058188  0.76590741  0.72877812    -0.05700
C1874       C  0.30239079  0.75661128  0.72037115    -0.33100
C1875       C  0.32521766  0.77425270  0.69642241     0.36100
C1876       C  0.31764963  0.80293807  0.68128757    -0.06100
C1877       C  0.29026161  0.81682239  0.69152208    -0.33000
C1878       C  0.26645645  0.79829762  0.71519225     0.36000
H1879       H  0.30650603  0.73227374  0.73063742     0.16400
O1880       O  0.35318676  0.76149914  0.68707085    -0.60500
H1881       H  0.28474339  0.83931217  0.68001898     0.16400
O1882       O  0.23662889  0.80927620  0.72337458    -0.60600
H1883       H  0.24997021  0.82901965  0.73907033     0.43400
H1884       H  0.33506569  0.73386742  0.67758102     0.43300
C1885       C  0.13978996  0.62136392  0.69443994    -0.05700
C1886       C  0.17597185  0.63252106  0.67809043    -0.33100
C1887       C  0.17353630  0.60783440  0.65547410     0.36100
C1888       C  0.13426044  0.57139786  0.64887078    -0.06100
C1889       C  0.09696929  0.56358895  0.66323837    -0.33000
C1890       C  0.09962459  0.58821695  0.68613139     0.36000
H1891       H  0.20706432  0.65863427  0.68415036     0.16400
O1892       O  0.21034828  0.61768409  0.64141003    -0.60500
H1893       H  0.06616889  0.53624491  0.65818283     0.16400
O1894       O  0.06368251  0.57734656  0.70148625    -0.60600
H1895       H  0.05990628  0.55320507  0.71309775     0.43400
H1896       H  0.21450327  0.64063533  0.62856862     0.43300
C1897       C  0.68009197  0.41213396  0.71632503    -0.05700
C1898       C  0.66178092  0.36821459  0.71163794    -0.33100
C1899       C  0.62044827  0.33989334  0.72044646     0.36100
C1900       C  0.59442199  0.35517968  0.73167101    -0.06100
C1901       C  0.61101267  0.39963713  0.73362204    -0.33000
C1902       C  0.65413090  0.42812305  0.72677151     0.36000
H1903       H  0.68160219  0.35521592  0.70455188     0.16400
O1904       O  0.60665225  0.29703889  0.71925082    -0.60500
H1905       H  0.59169511  0.41205669  0.74244440     0.16400
O1906       O  0.67179258  0.47053598  0.73351491    -0.60600
H1907       H  0.67649654  0.48564126  0.71585518     0.43400
H1908       H  0.61980860  0.29109937  0.73526334     0.43300
C1909       C  0.80033696  0.36417813  0.70782580    -0.05700
C1910       C  0.82001087  0.34284062  0.71945726    -0.33100
C1911       C  0.80287469  0.29886384  0.71526850     0.36100
C1912       C  0.76346816  0.27504047  0.70112636    -0.06100
C1913       C  0.74810226  0.29731668  0.68577465    -0.33000
C1914       C  0.76678894  0.34183856  0.68864700     0.36000
H1915       H  0.84664909  0.35950892  0.73347748     0.16400
O1916       O  0.81978230  0.27811386  0.72974355    -0.60500
H1917       H  0.71815675  0.27989451  0.67467567     0.16400
O1918       O  0.74809307  0.36195557  0.67545304    -0.60600
H1919       H  0.76541639  0.37406390  0.65868752     0.43400
H1920       H  0.84043631  0.27633698  0.71710628     0.43300
C1921       C  0.94463475  0.55600503  0.74322769    -0.05700
C1922       C  0.95586675  0.53386578  0.76228898    -0.33100
C1923       C  0.99595505  0.55447479  0.77585369     0.36100
C1924       C  0.02521133  0.59779996  0.77036368    -0.06100
C1925       C  0.01443331  0.61825999  0.74970061    -0.33000
C1926       C  0.97474834  0.59810905  0.73664775     0.36000
H1927       H  0.93245195  0.50150865  0.76797170     0.16400
O1928       O  0.00543291  0.53242083  0.79479047    -0.60500
H1929       H  0.03632142  0.65106199  0.74401585     0.16400
O1930       O  0.96484483  0.62059666  0.71823705    -0.60600
H1931       H  0.95628576  0.63812428  0.72946735     0.43400
H1932       H  0.99707639  0.53916211  0.81266271     0.43300
C1933       C  0.86535668  0.49065935  0.83318201    -0.05700
C1934       C  0.89813884  0.48082262  0.83595812    -0.33100
C1935       C  0.90241150  0.46282021  0.86013939     0.36100
C1936       C  0.87228664  0.45296626  0.88153628    -0.06100
C1937       C  0.84314797  0.46818433  0.87989813    -0.33000
C1938       C  0.83978875  0.48727325  0.85590944     0.36000
H1939       H  0.91803877  0.48358100  0.81857628     0.16400
O1940       O  0.93371276  0.45156721  0.86155691    -0.60500
H1941       H  0.82021301  0.46171842  0.89614455     0.16400
O1942       O  0.80712331  0.49642337  0.85350734    -0.60600
H1943       H  0.82080361  0.52776380  0.85624015     0.43400
H1944       H  0.92271437  0.42488048  0.85065472     0.43300
C1945       C  0.71431778  0.47779244  0.81599817    -0.05700
C1946       C  0.72058822  0.51383184  0.83106961    -0.33100
C1947       C  0.69693181  0.50909950  0.85487540     0.36100
C1948       C  0.66671180  0.46791474  0.86379705    -0.06100
C1949       C  0.65796745  0.43235489  0.84746220    -0.33000
C1950       C  0.68105224  0.43707288  0.82357379     0.36000
H1951       H  0.74577979  0.54548990  0.82545483     0.16400
O1952       O  0.70547960  0.54457064  0.87006208    -0.60500
H1953       H  0.63391726  0.40050170  0.85370832     0.16400
O1954       O  0.67208053  0.40139738  0.80847884    -0.60600
H1955       H  0.65315848  0.40062895  0.79346179     0.43400
H1956       H  0.72684796  0.54729768  0.88392245     0.43300
C1957       C  0.96359537  0.84437955  0.65667222    -0.05700
C1958       C  0.99053681  0.82956419  0.64598924    -0.33100
C1959       C  0.03407735  0.85783929  0.64085534     0.36100
C1960       C  0.05219345  0.90085153  0.64849531    -0.06100
C1961       C  0.02733550  0.91384262  0.66366859    -0.33000
C1962       C  0.98307847  0.88613468  0.66741867     0.36000
H1963       H  0.97646950  0.79738994  0.63778855     0.16400
O1964       O  0.05808171  0.84358705  0.62730650    -0.60500
H1965       H  0.04128466  0.94682955  0.67030640     0.16400
O1966       O  0.95860169  0.90146975  0.67899868    -0.60600
H1967       H  0.96360374  0.92637692  0.66772777     0.43400
H1968       H  0.05283092  0.84556700  0.60760157     0.43300
C1969       C  0.80618134  0.66248130  0.66287405    -0.05700
C1970       C  0.80090758  0.66275236  0.69137617    -0.33100
C1971       C  0.80234733  0.63190976  0.70807919     0.36100
C1972       C  0.81005690  0.60046244  0.69643791    -0.06100
C1973       C  0.81471613  0.59992712  0.66788176    -0.33000
C1974       C  0.81236932  0.63020894  0.65115656     0.36000
H1975       H  0.79605282  0.68730142  0.70079750     0.16400
O1976       O  0.79705372  0.63346181  0.73576275    -0.60500
H1977       H  0.82054695  0.57605052  0.65840205     0.16400
O1978       O  0.81894961  0.62958273  0.62357343    -0.60600
H1979       H  0.79044213  0.60922902  0.61585535     0.43400
H1980       H  0.82648622  0.64980393  0.74334353     0.43300
C1981       C  0.85655768  0.91084825  0.64159810    -0.05700
C1982       C  0.88370124  0.92858640  0.66427622    -0.33100
C1983       C  0.90051608  0.97179287  0.67130268     0.36100
C1984       C  0.88953899  0.99778737  0.65581867    -0.06100
C1985       C  0.85684230  0.97807288  0.63606325    -0.33000
C1986       C  0.84050496  0.93483770  0.62877410     0.36000
H1987       H  0.89345793  0.90926948  0.67570640     0.16400
O1988       O  0.93053391  0.98910550  0.69170407    -0.60500
H1989       H  0.84719357  0.99725755  0.62424000     0.16400
O1990       O  0.81034597  0.91684133  0.60844976    -0.60600
H1991       H  0.82543992  0.93047703  0.59126794     0.43400
H1992       H  0.91466274  0.99051022  0.70790932     0.43300
C1993       C  0.91272208  0.73942473  0.55053692    -0.05700
C1994       C  0.95758500  0.76003726  0.55164853    -0.33100
C1995       C  0.98141569  0.76762270  0.52763230     0.36100
C1996       C  0.96000931  0.75565778  0.50233384    -0.06100
C1997       C  0.91534605  0.72994744  0.50163721    -0.33000
C1998       C  0.89154265  0.72147985  0.52570002     0.36000
H1999       H  0.97414019  0.77462878  0.57058961     0.16400
O2000       O  0.02519609  0.79249419  0.52870987    -0.60500
H2001       H  0.89871433  0.72010603  0.48218900     0.16400
O2002       O  0.84759519  0.70089466  0.52423323    -0.60600
H2003       H  0.84055032  0.72158845  0.51566987     0.43400
H2004       H  0.03571458  0.77250025  0.53331214     0.43300
C2005       C  0.82568217  0.81097266  0.52066223    -0.05700
C2006       C  0.78579144  0.79194079  0.50768372    -0.33100
C2007       C  0.78162943  0.80667951  0.48213169     0.36100
C2008       C  0.81790959  0.84036016  0.46944825    -0.06100
C2009       C  0.85864239  0.85494772  0.48092824    -0.33000
C2010       C  0.86261577  0.84054228  0.50656433     0.36000
H2011       H  0.75754552  0.76764348  0.51805671     0.16400
O2012       O  0.74179455  0.78972824  0.47033496    -0.60500
H2013       H  0.88696364  0.88052205  0.47138909     0.16400
O2014       O  0.90243606  0.85701125  0.51827906    -0.60600
H2015       H  0.91220770  0.83639417  0.51359187     0.43400
H2016       H  0.72616765  0.80089890  0.48126102     0.43300
C2017       C  0.25550679  0.48184236  0.54783638    -0.05700
C2018       C  0.27968614  0.46558833  0.56022687    -0.33100
C2019       C  0.32385906  0.48356638  0.55453266     0.36100
C2020       C  0.34498508  0.52009363  0.53786475    -0.06100
C2021       C  0.31995121  0.53299162  0.52316280    -0.33000
C2022       C  0.27549767  0.51319293  0.52725509     0.36000
H2023       H  0.26471133  0.44019401  0.57508770     0.16400
O2024       O  0.34724263  0.46851796  0.56784423    -0.60500
H2025       H  0.33539326  0.56117214  0.51038624     0.16400
O2026       O  0.25284951  0.52831092  0.51316178    -0.60600
H2027       H  0.24441856  0.51191482  0.49577927     0.43400
H2028       H  0.34472309  0.44471193  0.55628231     0.43300
C2029       C  0.45435396  0.70494754  0.55417736    -0.05700
C2030       C  0.42260058  0.69885157  0.53496043    -0.33100
C2031       C  0.40951492  0.72945485  0.53217805     0.36100
C2032       C  0.42834830  0.76608131  0.54885398    -0.06100
C2033       C  0.46618506  0.77575219  0.56330910    -0.33000
C2034       C  0.47806082  0.74469135  0.56700784     0.36000
H2035       H  0.40512899  0.66869813  0.52412961     0.16400
O2036       O  0.37509297  0.72071995  0.51589091    -0.60500
H2037       H  0.48254134  0.80480164  0.57539938     0.16400
O2038       O  0.51015970  0.75198329  0.58511961    -0.60600
H2039       H  0.53703900  0.76685558  0.57438971     0.43400
H2040       H  0.38763108  0.73385301  0.49800559     0.43300
C2041       C  0.60615715  0.67255106  0.58775199    -0.05700
C2042       C  0.61842948  0.66408158  0.61343618    -0.33100
C2043       C  0.66056887  0.68802357  0.62333447     0.36100
C2044       C  0.69179947  0.72153718  0.60767271    -0.06100
C2045       C  0.67890257  0.73208778  0.58288251    -0.33000
C2046       C  0.63656730  0.70805653  0.57295268     0.36000
H2047       H  0.59571990  0.63707923  0.62542105     0.16400
O2048       O  0.67166778  0.67580348  0.64709561    -0.60500
H2049       H  0.70264761  0.75728393  0.57015193     0.16400
O2050       O  0.62634104  0.71768731  0.54794985    -0.60600
H2051       H  0.63088136  0.69945587  0.53464206     0.43400
H2052       H  0.67835988  0.65320603  0.64161636     0.43300
C2053       C  0.48378674  0.49169565  0.53403294    -0.05700
C2054       C  0.51031489  0.50242471  0.51079558    -0.33100
C2055       C  0.50700312  0.47091208  0.49264007     0.36100
C2056       C  0.47684545  0.42792079  0.49763808    -0.06100
C2057       C  0.44945102  0.41741326  0.52039196    -0.33000
C2058       C  0.45279492  0.44883701  0.53853310     0.36000
H2059       H  0.53419876  0.53536977  0.50683170     0.16400
O2060       O  0.53487691  0.48225740  0.47103381    -0.60500
H2061       H  0.42546524  0.38449793  0.52435649     0.16400
O2062       O  0.42467710  0.43742205  0.56000678    -0.60600
H2063       H  0.43810267  0.42962244  0.57497033     0.43400
H2064       H  0.52171089  0.49086013  0.45634106     0.43300
C2065       C  0.37717467  0.49099344  0.64749537    -0.05700
C2066       C  0.39573555  0.49410802  0.67334120    -0.33100
C2067       C  0.37024244  0.48015839  0.69669166     0.36100
C2068       C  0.32558964  0.46080977  0.69414935    -0.06100
C2069       C  0.30665429  0.45253093  0.66822815    -0.33000
C2070       C  0.33225143  0.46786521  0.64490125     0.36000
H2071       H  0.43025436  0.51093281  0.67586147     0.16400
O2072       O  0.38920586  0.48628690  0.72192386    -0.60500
H2073       H  0.27207333  0.43671986  0.66618360     0.16400
O2074       O  0.31303104  0.46189457  0.61992013    -0.60600
H2075       H  0.30489369  0.43221621  0.61460705     0.43400
H2076       H  0.39292980  0.51390516  0.72869881     0.43300
C2077       C  0.50047022  0.64562479  0.66933898    -0.05700
C2078       C  0.53910968  0.68412446  0.67224369    -0.33100
C2079       C  0.54401793  0.71221502  0.69362122     0.36100
C2080       C  0.51001839  0.70132386  0.71217560    -0.06100
C2081       C  0.47339176  0.66104662  0.71069268    -0.33000
C2082       C  0.46865099  0.63311166  0.68960354     0.36000
H2083       H  0.56373304  0.69407608  0.65670246     0.16400
O2084       O  0.58046403  0.75148275  0.69483328    -0.60500
H2085       H  0.44747064  0.65199195  0.72519424     0.16400
O2086       O  0.43127239  0.59479221  0.68774289    -0.60600
H2087       H  0.43543926  0.57558732  0.70023810     0.43400
H2088       H  0.57464845  0.77022808  0.68290247     0.43300
loop_ 
_geom_bond_atom_site_label_1 
_geom_bond_atom_site_label_2 
_geom_bond_distance 
_geom_bond_site_symmetry_2 
_ccdc_geom_bond_type 
O1          Cr19   1.972       .  S
O1            C9   1.261       .  A
O2          Cr19   1.991       .  S
O2            C3   1.261       .  A
C3            O4   1.254       .  A
C3         C2029   1.467       .  S
O4          Cr20   1.989       .  S
O5          Cr20   2.039       .  S
O5            C6   1.278       .  A
C6            O7   1.262       .  A
C6         C2041   1.496       .  S
O7          Cr21   1.982       .  S
O8          Cr21   1.987       .  S
O8            C9   1.262       .  A
C9         C2077   1.462       .  S
O10         Cr19   1.986       .  S
O10          C18   1.261       .  A
O11         Cr19   1.984       .  S
O11          C12   1.262       .  A
C12          O13   1.275       .  A
C12        C2020   1.480       .  S
O13         Cr20   2.031       .  S
O14         Cr20   1.977       .  S
O14          C15   1.256       .  A
C15          O16   1.263       .  A
C15        C2053   1.470       .  S
O16         Cr21   1.991       .  S
O17         Cr21   1.980       .  S
O17          C18   1.259       .  A
C18        C2065   1.474       .  S
Cr19         O22   1.759       .  S
Cr20         O22   1.770       .  S
Cr21         O22   1.769       .  S
O23         Cr41   1.957       .  S
O23          C31   1.264       .  A
O24         Cr41   2.025       .  S
O24          C25   1.265       .  A
C25          O26   1.254       .  A
C25        C1981   1.484       .  S
O26         Cr42   1.986       .  S
O27         Cr42   2.068       .  S
O27          C28   1.283       .  A
C28          O29   1.251       .  A
C28        C2044   1.491       .  S
O29         Cr43   1.938       .  S
O30         Cr43   2.008       .  S
O30          C31   1.268       .  A
C31        C2005   1.453       .  S
O32         Cr41   1.992       .  S
O32          C40   1.261       .  A
O33         Cr41   1.920       .  S
O33          C34   1.249       .  A
C34          O35   1.286       .  A
C34        C1957   1.486       .  S
O35         Cr42   2.088       .  S
O36         Cr42   1.965       .  S
O36          C37   1.255       .  A
C37          O38   1.266       .  A
C37        C1969   1.483       .  S
O38         Cr43   2.014       .  S
O39         Cr43   1.980       .  S
O39          C40   1.256       .  A
C40        C1993   1.459       .  S
Cr41         O44   1.760       .  S
Cr42         O44   1.777       .  S
Cr43         O44   1.772       .  S
O45         Cr63   1.991       .  S
O45          C53   1.260       .  A
O46         Cr63   2.010       .  S
O46          C47   1.283       .  A
C47          O48   1.284       .  A
C47        C1921   1.474       .  S
O48         Cr64   2.002       .  S
O49         Cr64   1.981       .  S
O49          C50   1.242       .  A
C50          O51   1.253       .  A
C50        C1909   1.488       .  S
O51         Cr65   2.006       .  S
O52         Cr65   1.965       .  S
O52          C53   1.258       .  A
C53        C1933   1.460       .  S
O54         Cr63   1.968       .  S
O54          C62   1.259       .  A
O55         Cr63   1.996       .  S
O55          C56   1.248       .  A
C56          O57   1.246       .  A
C56        C1972   1.486       .  S
O57         Cr64   1.984       .  S
O58         Cr64   2.009       .  S
O58          C59   1.287       .  A
C59          O60   1.280       .  A
C59        C1897   1.468       .  S
O60         Cr65   1.990       .  S
O61         Cr65   1.991       .  S
O61          C62   1.265       .  A
C62        C1945   1.476       .  S
Cr63         O66   1.764       .  S
Cr64         O66   1.762       .  S
Cr65         O66   1.751       .  S
O67         Cr85   1.994       .  S
O67          C75   1.264       .  A
O68         Cr85   1.975       .  S
O68          C69   1.263       .  A
C69          O70   1.282       .  A
C69        C1924   1.499       .  S
O70         Cr86   2.045       .  S
O71         Cr86   1.982       .  S
O71          C72   1.252       .  A
C72          O73   1.261       .  A
C72        C1861   1.465       .  S
O73         Cr87   1.998       .  S
O74         Cr87   1.960       .  S
O74          C75   1.259       .  A
C75        C1885   1.462       .  S
O76         Cr85   1.968       .  S
O76          C84   1.258       .  A
O77         Cr85   2.002       .  S
O77          C78   1.262       .  A
C78          O79   1.250       .  A
C78        C1849   1.473       .  S
O79         Cr86   1.965       .  S
O80         Cr86   2.045       .  S
O80          C81   1.279       .  A
C81          O82   1.260       .  A
C81        C1837   1.488       .  S
O82         Cr87   1.983       .  S
O83         Cr87   1.975       .  S
O83          C84   1.262       .  A
C84        C1873   1.470       .  S
Cr85         O88   1.768       .  S
Cr86         O88   1.765       .  S
Cr87         O88   1.762       .  S
O89        Cr107   1.971       .  S
O89          C97   1.261       .  A
O90        Cr107   1.994       .  S
O90          C91   1.261   1_565  A
C91          O92   1.252   1_545  A
C91        C1792   1.461       .  S
O92        Cr108   1.977       .  S
O93        Cr108   2.032       .  S
O93          C94   1.278       .  A
C94          O95   1.265       .  A
C94        C1804   1.495   1_565  S
O95        Cr109   1.983       .  S
O96        Cr109   1.982       .  S
O96          C97   1.261       .  A
C97        C1813   1.458   1_556  S
O98        Cr107   1.976       .  S
O98         C106   1.260       .  A
O99        Cr107   1.979       .  S
O99         C100   1.261       .  A
C100        O101   1.277       .  A
C100       C1777   1.477       .  S
O101       Cr108   2.034       .  S
O102       Cr108   1.971       .  S
O102        C103   1.252       .  A
C103        O104   1.261       .  A
C103       C1852   1.473       .  S
O104       Cr109   1.995       .  S
O105       Cr109   1.976       .  S
O105        C106   1.260       .  A
C106       C1825   1.478       .  S
Cr107       O110   1.761       .  S
Cr108       O110   1.768       .  S
Cr109       O110   1.765       .  S
O111       Cr129   1.981       .  S
O111        C119   1.263       .  A
O112       Cr129   1.994       .  S
O112        C113   1.246       .  A
C113        O114   1.246       .  A
C113       C1741   1.496       .  S
O114       Cr130   1.999       .  S
O115       Cr130   2.013       .  S
O115        C116   1.288       .  A
C116        O117   1.281       .  A
C116       C1801   1.475       .  S
O117       Cr131   2.001       .  S
O118       Cr131   2.006       .  S
O118        C119   1.267       .  A
C119       C1765   1.481       .  S
O120       Cr129   1.968       .  S
O120        C128   1.259       .  A
O121       Cr129   2.021       .  S
O121        C122   1.287       .  A
C122        O123   1.289       .  A
C122       C1720   1.479       .  S
O123       Cr130   2.008       .  S
O124       Cr130   1.997       .  S
O124        C125   1.249       .  A
C125        O126   1.255       .  A
C125       C1732   1.505   1_556  S
O126       Cr131   2.016       .  S
O127       Cr131   1.978       .  S
O127        C128   1.258       .  A
C128       C1753   1.475       .  S
Cr129       O132   1.752       .  S
Cr130       O132   1.759       .  S
Cr131       O132   1.763       .  S
O133       Cr151   1.981       .  S
O133        C141   1.261       .  A
O134       Cr151   1.989       .  S
O134        C135   1.265       .  A
C135        O136   1.275       .  A
C135       C1684   1.498       .  S
O136       Cr152   2.031       .  S
O137       Cr152   2.021       .  S
O137        C138   1.264       .  A
C138        O139   1.261       .  A
C138       C1669   1.493       .  S
O139       Cr153   1.992       .  S
O140       Cr153   1.984       .  S
O140        C141   1.264       .  A
C141       C1693   1.464       .  S
O142       Cr151   1.990       .  S
O142        C150   1.261       .  A
O143       Cr151   1.997       .  S
O143        C144   1.263       .  A
C144        O145   1.265       .  A
C144       C1657   1.492       .  S
O145       Cr152   2.012       .  S
O146       Cr152   2.021       .  S
O146        C147   1.272       .  A
C147        O148   1.262       .  A
C147       C1648   1.474       .  S
O148       Cr153   1.986       .  S
O149       Cr153   1.971       .  S
O149        C150   1.258       .  A
C150       C1705   1.478       .  S
Cr151       O154   1.771       .  S
Cr152       O154   1.771       .  S
Cr153       O154   1.761       .  S
O155       Cr173   1.982       .  S
O155        C163   1.260       .  A
O156       Cr173   1.989       .  S
O156        C157   1.265       .  A
C157        O158   1.275       .  A
C157       C1681   1.477       .  S
O158       Cr174   2.022       .  S
O159       Cr174   1.982       .  S
O159        C160   1.254       .  A
C160        O161   1.262       .  A
C160       C1609   1.470       .  S
O161       Cr175   1.999       .  S
O162       Cr175   1.982       .  S
O162        C163   1.262       .  A
C163       C1633   1.463       .  S
O164       Cr173   1.985       .  S
O164        C172   1.260       .  A
O165       Cr173   1.992       .  S
O165        C166   1.259       .  A
C166        O167   1.254       .  A
C166       C2056   1.470       .  S
O167       Cr174   1.974       .  S
O168       Cr174   2.029       .  S
O168        C169   1.275       .  A
C169        O170   1.264       .  A
C169       C1597   1.480       .  S
O170       Cr175   1.991       .  S
O171       Cr175   1.980       .  S
O171        C172   1.262       .  A
C172       C1624   1.481       .  S
Cr173       O176   1.770       .  S
Cr174       O176   1.770       .  S
Cr175       O176   1.763       .  S
O177       Cr195   1.988       .  S
O177        C185   1.264       .  A
O178       Cr195   2.013       .  S
O178        C179   1.263       .  A
C179        O180   1.254       .  A
C179       C1552   1.489       .  S
O180       Cr196   1.988       .  S
O181       Cr196   2.011       .  S
O181        C182   1.273       .  A
C182        O183   1.268       .  A
C182       C1561   1.475       .  S
O183       Cr197   1.998       .  S
O184       Cr197   1.982       .  S
O184        C185   1.260       .  A
C185       C1585   1.464       .  S
O186       Cr195   1.985       .  S
O186        C194   1.262       .  A
O187       Cr195   1.994       .  S
O187        C188   1.269       .  A
C188        O189   1.275       .  A
C188       C1525   1.472       .  S
O189       Cr196   2.010       .  S
O190       Cr196   1.996       .  S
O190        C191   1.256       .  A
C191        O192   1.261       .  A
C191       C1537   1.492       .  S
O192       Cr197   2.002       .  S
O193       Cr197   1.996       .  S
O193        C194   1.263       .  A
C194       C1573   1.491       .  S
Cr195       O198   1.769       .  S
Cr196       O198   1.775       .  S
Cr197       O198   1.777       .  S
O199       Cr217   1.981       .  S
O199        C207   1.263       .  A
O200       Cr217   2.004       .  S
O200        C201   1.262       .  A
C201        O202   1.257       .  A
C201       C1489   1.486       .  S
O202       Cr218   1.997       .  S
O203       Cr218   2.028       .  S
O203        C204   1.276       .  A
C204        O205   1.266       .  A
C204       C1564   1.493       .  S
O205       Cr219   1.985       .  S
O206       Cr219   1.987       .  S
O206        C207   1.262       .  A
C207       C1516   1.467       .  S
O208       Cr217   1.984       .  S
O208        C216   1.262       .  A
O209       Cr217   1.985       .  S
O209        C210   1.263       .  A
C210        O211   1.274       .  A
C210       C1480   1.469       .  S
O211       Cr218   2.019       .  S
O212       Cr218   2.004       .  S
O212        C213   1.260       .  A
C213        O214   1.261       .  A
C213       C1660   1.493       .  S
O214       Cr219   2.002       .  S
O215       Cr219   1.971       .  S
O215        C216   1.258       .  A
C216       C1504   1.480       .  S
Cr217       O220   1.770       .  S
Cr218       O220   1.776       .  S
Cr219       O220   1.770       .  S
O221       Cr239   2.000   1_565  S
O221        C229   1.266       .  A
O222       Cr239   1.975   1_565  S
O222        C223   1.261       .  A
C223        O224   1.276       .  A
C223       C1444   1.497       .  S
O224       Cr240   2.038       .  S
O225       Cr240   2.000       .  S
O225        C226   1.259       .  A
C226        O227   1.261       .  A
C226       C1429   1.482       .  S
O227       Cr241   1.995       .  S
O228       Cr241   1.988       .  S
O228        C229   1.264       .  A
C229       C1465   1.475       .  S
O230       Cr239   1.970       .  S
O230        C238   1.259       .  A
O231       Cr239   2.003       .  S
O231        C232   1.264       .  A
C232        O233   1.261       .  A
C232       C1540   1.494       .  S
O233       Cr240   2.002   1_545  S
O234       Cr240   2.019   1_545  S
O234        C235   1.273       .  A
C235        O236   1.263   1_545  A
C235       C1417   1.472       .  S
O236       Cr241   1.988       .  S
O237       Cr241   1.975   1_545  S
O237        C238   1.259       .  A
C238       C1453   1.470       .  S
Cr239       O242   1.767   1_545  S
Cr240       O242   1.771       .  S
Cr241       O242   1.764       .  S
O243       Cr261   1.990       .  S
O243        C251   1.263       .  A
O244       Cr261   1.988       .  S
O244        C245   1.267       .  A
C245        O246   1.273       .  A
C245       C1441   1.479       .  S
O246       Cr262   2.020       .  S
O247       Cr262   2.020       .  S
O247        C248   1.264       .  A
C248        O249   1.263       .  A
C248       C1384   1.498       .  S
O249       Cr263   2.004       .  S
O250       Cr263   1.978       .  S
O250        C251   1.262       .  A
C251       C1393   1.467       .  S
O252       Cr261   1.988       .  S
O252        C260   1.261       .  A
O253       Cr261   2.008       .  S
O253        C254   1.264       .  A
C254        O255   1.263       .  A
C254       C1729   1.506       .  S
O255       Cr262   2.014       .  S
O256       Cr262   2.017       .  S
O256        C257   1.270       .  A
C257        O258   1.262       .  A
C257       C1369   1.471       .  S
O258       Cr263   1.984       .  S
O259       Cr263   1.975       .  S
O259        C260   1.260       .  A
C260       C1408   1.483       .  S
Cr261       O264   1.772       .  S
Cr262       O264   1.772       .  S
Cr263       O264   1.767       .  S
O265       Cr283   2.043       .  S
O265        C273   1.281       .  A
O266       Cr283   1.950       .  S
O266        C267   1.256       .  A
C267        O268   1.269       .  A
C267       C1345   1.466       .  S
O268       Cr284   2.015       .  S
O269       Cr284   1.993       .  S
O269        C270   1.251       .  A
C270        O271   1.252       .  A
C270       C1336   1.478       .  S
O271       Cr285   1.994       .  S
O272       Cr285   1.977       .  S
O272        C273   1.272       .  A
C273       C1576   1.476       .  S
O274       Cr283   1.992       .  S
O274        C282   1.252       .  A
O275       Cr283   2.020       .  S
O275        C276   1.267       .  A
C276        O277   1.253       .  A
C276       C1321   1.497   1_545  S
O277       Cr284   1.955       .  S
O278       Cr284   2.044       .  S
O278        C279   1.281       .  A
C279        O280   1.262       .  A
C279       C1612   1.465       .  S
O280       Cr285   1.935       .  S
O281       Cr285   1.974       .  S
O281        C282   1.251       .  A
C282       C1360   1.463       .  S
Cr283       O286   1.777       .  S
Cr284       O286   1.782       .  S
Cr285       O286   1.763       .  S
O287       Cr305   1.994       .  S
O287        C295   1.264       .  A
O288       Cr305   1.974       .  S
O288        C289   1.261       .  A
C289        O290   1.279       .  A
C289       C1348   1.491   1_565  S
O290       Cr306   2.029       .  S
O291       Cr306   2.010       .  S
O291        C292   1.259   1_565  A
C292        O293   1.259       .  A
C292       C1645   1.485       .  S
O293       Cr307   1.993   1_545  S
O294       Cr307   1.978       .  S
O294        C295   1.263       .  A
C295       C1309   1.472       .  S
O296       Cr305   1.966       .  S
O296        C304   1.258       .  A
O297       Cr305   2.003       .  S
O297        C298   1.263       .  A
C298        O299   1.259       .  A
C298       C1297   1.489       .  S
O299       Cr306   1.993       .  S
O300       Cr306   2.018       .  S
O300        C301   1.273       .  A
C301        O302   1.264       .  A
C301       C1285   1.473       .  S
O302       Cr307   1.988       .  S
O303       Cr307   1.974       .  S
O303        C304   1.260       .  A
C304       C2008   1.465       .  S
Cr305       O308   1.767       .  S
Cr306       O308   1.771       .  S
Cr307       O308   1.766       .  S
O309       Cr327   1.986       .  S
O309        C317   1.263       .  A
O310       Cr327   1.993       .  S
O310        C311   1.266       .  A
C311        O312   1.275       .  A
C311       C1249   1.482       .  S
O312       Cr328   2.023       .  S
O313       Cr328   1.996       .  S
O313        C314   1.259       .  A
C314        O315   1.265       .  A
C314       C1372   1.486       .  S
O315       Cr329   2.003       .  S
O316       Cr329   1.981       .  S
O316        C317   1.264       .  A
C317       C1273   1.468       .  S
O318       Cr327   1.979       .  S
O318        C326   1.258       .  A
O319       Cr327   1.998       .  S
O319        C320   1.260       .  A
C320        O321   1.257       .  A
C320       C1264   1.483       .  S
O321       Cr328   1.985       .  S
O322       Cr328   2.021       .  S
O322        C323   1.271       .  A
C323        O324   1.261       .  A
C323       C1237   1.472       .  S
O324       Cr329   1.985       .  S
O325       Cr329   1.986       .  S
O325        C326   1.262       .  A
C326       C1513   1.481       .  S
Cr327       O330   1.771       .  S
Cr328       O330   1.767       .  S
Cr329       O330   1.766       .  S
O331       Cr349   1.979       .  S
O331        C339   1.262       .  A
O332       Cr349   1.980       .  S
O332        C333   1.261       .  A
C333        O334   1.277   1_655  A
C333       C1252   1.503   1_655  S
O334       Cr350   2.043   1_455  S
O335       Cr350   2.013   1_455  S
O335        C336   1.263       .  A
C336        O337   1.264       .  A
C336       C1213   1.496       .  S
O337       Cr351   2.000   1_455  S
O338       Cr351   1.987       .  S
O338        C339   1.265       .  A
C339       C1828   1.460       .  S
O340       Cr349   1.978       .  S
O340        C348   1.257       .  A
O341       Cr349   1.988       .  S
O341        C342   1.262       .  A
C342        O343   1.266       .  A
C342       C1201   1.491       .  S
O343       Cr350   2.012       .  S
O344       Cr350   2.022       .  S
O344        C345   1.272       .  A
C345        O346   1.261       .  A
C345       C1432   1.472       .  S
O346       Cr351   1.982       .  S
O347       Cr351   1.975       .  S
O347        C348   1.258       .  A
C348       C1225   1.474       .  S
Cr349       O352   1.771       .  S
Cr350       O352   1.768       .  S
Cr351       O352   1.764       .  S
O353       Cr371   1.964       .  S
O353        C361   1.259       .  A
O354       Cr371   1.991       .  S
O354        C355   1.261       .  A
C355        O356   1.261       .  A
C355       C1168   1.478       .  S
O356       Cr372   2.004       .  S
O357       Cr372   2.019       .  S
O357        C358   1.272       .  A
C358        O359   1.264       .  A
C358       C1180   1.476       .  S
O359       Cr373   1.986       .  S
O360       Cr373   2.008       .  S
O360        C361   1.268       .  A
C361       C1621   1.478       .  S
O362       Cr371   1.988       .  S
O362        C370   1.262       .  A
O363       Cr371   1.981       .  S
O363        C364   1.259       .  A
C364        O365   1.271       .  A
C364       C1549   1.474       .  S
O365       Cr372   2.025       .  S
O366       Cr372   1.997       .  S
O366        C367   1.260       .  A
C367        O368   1.262       .  A
C367       C1204   1.491       .  S
O368       Cr373   2.002       .  S
O369       Cr373   1.968       .  S
O369        C370   1.259       .  A
C370       C1189   1.471       .  S
Cr371       O374   1.764       .  S
Cr372       O374   1.771       .  S
Cr373       O374   1.771       .  S
O375       Cr393   1.971       .  S
O375        C383   1.261       .  A
O376       Cr393   2.003       .  S
O376        C377   1.262       .  A
C377        O378   1.258       .  A
C377       C1477   1.484       .  S
O378       Cr394   1.996       .  S
O379       Cr394   2.041       .  S
O379        C380   1.277       .  A
C380        O381   1.261       .  A
C380       C1177   1.496       .  S
O381       Cr395   1.978       .  S
O382       Cr395   1.985       .  S
O382        C383   1.261       .  A
C383       C1153   1.461       .  S
O384       Cr393   1.979       .  S
O384        C392   1.262       .  A
O385       Cr393   1.980       .  S
O385        C386   1.262       .  A
C386        O387   1.274       .  A
C386       C1141   1.471       .  S
O387       Cr394   2.023       .  S
O388       Cr394   2.000       .  S
O388        C389   1.261       .  A
C389        O390   1.263       .  A
C389       C1300   1.490       .  S
O390       Cr395   1.997       .  S
O391       Cr395   1.977       .  S
O391        C392   1.259       .  A
C392       C1396   1.482       .  S
Cr393       O396   1.767       .  S
Cr394       O396   1.772       .  S
Cr395       O396   1.770       .  S
O397       Cr415   1.954   1_655  S
O397        C405   1.261       .  A
O398       Cr415   2.020   1_655  S
O398        C399   1.265       .  A
C399        O400   1.251       .  A
C399       C1108   1.472       .  S
O400       Cr416   1.974   1_655  S
O401       Cr416   2.043   1_655  S
O401        C402   1.275       .  A
C402        O403   1.250       .  A
C402       C1120   1.470       .  S
O403       Cr417   1.936   1_655  S
O404       Cr417   2.012       .  S
O404        C405   1.268   1_455  A
C405       C1456   1.449   1_556  S
O406       Cr415   1.993       .  S
O406        C414   1.263       .  A
O407       Cr415   1.919       .  S
O407        C408   1.250       .  A
C408        O409   1.278       .  A
C408       C1789   1.468       .  S
O409       Cr416   2.056       .  S
O410       Cr416   1.946       .  S
O410        C411   1.252       .  A
C411        O412   1.269       .  A
C411       C1093   1.488       .  S
O412       Cr417   2.028       .  S
O413       Cr417   1.982       .  S
O413        C414   1.258       .  A
C414       C1129   1.459       .  S
Cr415       O418   1.752       .  S
Cr416       O418   1.771       .  S
Cr417       O418   1.767       .  S
O419       Cr437   1.986       .  S
O419        C427   1.265       .  A
O420       Cr437   2.005       .  S
O420        C421   1.264       .  A
C421        O422   1.258       .  A
C421       C1717   1.490       .  S
O422       Cr438   1.995       .  S
O423       Cr438   2.045       .  S
O423        C424   1.274       .  A
C424        O425   1.255       .  A
C424       C1117   1.492       .  S
O425       Cr439   1.965       .  S
O426       Cr439   1.983       .  S
O426        C427   1.262       .  A
C427       C1084   1.464       .  S
O428       Cr437   1.989       .  S
O428        C436   1.261       .  A
O429       Cr437   1.981       .  S
O429        C430   1.264       .  A
C430        O431   1.274       .  A
C430       C1069   1.474       .  S
O431       Cr438   2.021       .  S
O432       Cr438   2.008       .  S
O432        C433   1.264       .  A
C433        O434   1.263       .  A
C433       C1261   1.479       .  S
O434       Cr439   1.978       .  S
O435       Cr439   1.967       .  S
O435        C436   1.254       .  A
C436       C1936   1.481       .  S
Cr437       O440   1.766       .  S
Cr438       O440   1.774       .  S
Cr439       O440   1.771       .  S
O441       Cr459   2.019       .  S
O441        C449   1.274       .  A
O442       Cr459   1.929       .  S
O442        C443   1.251       .  A
C443        O444   1.273       .  A
C443       C1045   1.481       .  S
O444       Cr460   2.025       .  S
O445       Cr460   2.000       .  S
O445        C446   1.251       .  A
C446        O447   1.254       .  A
C446       C1033   1.487       .  S
O447       Cr461   2.002       .  S
O448       Cr461   1.961       .  S
O448        C449   1.268       .  A
C449       C2068   1.456       .  S
O450       Cr459   1.982       .  S
O450        C458   1.250       .  A
O451       Cr459   1.989       .  S
O451        C452   1.261       .  A
C452        O453   1.256       .  A
C452       C1096   1.482       .  S
O453       Cr460   1.970       .  S
O454       Cr460   2.052       .  S
O454        C455   1.284       .  A
C455        O456   1.262       .  A
C455       C1864   1.470       .  S
O456       Cr461   1.927       .  S
O457       Cr461   1.985       .  S
O457        C458   1.255       .  A
C458       C1057   1.458       .  S
Cr459       O462   1.775       .  S
Cr460       O462   1.775       .  S
Cr461       O462   1.758       .  S
O463       Cr481   2.014       .  S
O463        C471   1.272       .  A
O464       Cr481   1.942       .  S
O464        C465   1.249       .  A
C465        O466   1.269       .  A
C465       C1048   1.477       .  S
O466       Cr482   2.023       .  S
O467       Cr482   1.988       .  S
O467        C468   1.255       .  A
C468        O469   1.262       .  A
C468       C1900   1.484       .  S
O469       Cr483   2.006       .  S
O470       Cr483   1.963       .  S
O470        C471   1.267       .  A
C471       C1024   1.466       .  S
O472       Cr481   1.984       .  S
O472        C480   1.256       .  A
O473       Cr481   2.024       .  S
O473        C474   1.271       .  A
C474        O475   1.255       .  A
C474       C1009   1.482       .  S
O475       Cr482   1.949       .  S
O476       Cr482   2.049       .  S
O476        C477   1.277       .  A
C477        O478   1.258       .  A
C477       C1000   1.479       .  S
O478       Cr483   1.949       .  S
O479       Cr483   1.977       .  S
O479        C480   1.255       .  A
C480       C1768   1.465       .  S
Cr481       O484   1.775       .  S
Cr482       O484   1.784       .  S
Cr483       O484   1.759       .  S
O485       Cr503   1.966   1_565  S
O485        C493   1.261       .  A
O486       Cr503   1.996   1_565  S
O486        C487   1.261       .  A
C487        O488   1.259       .  A
C487       C1960   1.479       .  S
O488       Cr504   2.006   1_565  S
O489       Cr504   2.024   1_565  S
O489        C490   1.277       .  A
C490        O491   1.269   1_565  A
C490        C973   1.497       .  S
O491       Cr505   1.993       .  S
O492       Cr505   1.988   1_565  S
O492        C493   1.262       .  A
C493        C985   1.463       .  S
O494       Cr503   1.967       .  S
O494        C502   1.258       .  A
O495       Cr503   1.980       .  S
O495        C496   1.262       .  A
C496        O497   1.271       .  A
C496        C961   1.471       .  S
O497       Cr504   2.020       .  S
O498       Cr504   1.985       .  S
O498        C499   1.257       .  A
C499        O500   1.260       .  A
C499       C1012   1.483       .  S
O500       Cr505   2.002       .  S
O501       Cr505   1.987       .  S
O501        C502   1.261       .  A
C502       C1696   1.477       .  S
Cr503       O506   1.757       .  S
Cr504       O506   1.771       .  S
Cr505       O506   1.775       .  S
O507       Cr525   1.949       .  S
O507        C515   1.264       .  A
O508       Cr525   2.018       .  S
O508        C509   1.262       .  A
C509        O510   1.256       .  A
C509        C937   1.488       .  S
O510       Cr526   1.997       .  S
O511       Cr526   2.055       .  S
O511        C512   1.279       .  A
C512        O513   1.251       .  A
C512        C976   1.481       .  S
O513       Cr527   1.938       .  S
O514       Cr527   2.029       .  S
O514        C515   1.274       .  A
C515       C1876   1.457       .  S
O516       Cr525   1.990       .  S
O516        C524   1.259       .  A
O517       Cr525   1.917       .  S
O517        C518   1.253       .  A
C518        O519   1.282       .  A
C518       C2032   1.479       .  S
O519       Cr526   2.067       .  S
O520       Cr526   1.959       .  S
O520        C521   1.253       .  A
C521        O522   1.270       .  A
C521       C1324   1.497       .  S
O522       Cr527   2.026       .  S
O523       Cr527   1.986       .  S
O523        C524   1.255       .  A
C524        C952   1.460       .  S
Cr525       O528   1.754       .  S
Cr526       O528   1.776       .  S
Cr527       O528   1.771       .  S
O529       Cr547   1.996       .  S
O529        C537   1.263       .  A
O530       Cr547   1.991       .  S
O530        C531   1.273       .  A
C531        O532   1.287       .  A
C531        C925   1.498       .  S
O532       Cr548   2.033       .  S
O533       Cr548   1.984       .  S
O533        C534   1.245       .  A
C534        O535   1.254       .  A
C534       C1840   1.502       .  S
O535       Cr549   2.017       .  S
O536       Cr549   1.970       .  S
O536        C537   1.262       .  A
C537        C949   1.465       .  S
O538       Cr547   1.953       .  S
O538        C546   1.250       .  A
O539       Cr547   1.991       .  S
O539        C540   1.251       .  A
C540        O541   1.250       .  A
C540        C913   1.491       .  S
O541       Cr548   2.001       .  S
O542       Cr548   2.027       .  S
O542        C543   1.292       .  A
C543        O544   1.280       .  A
C543       C1036   1.477       .  S
O544       Cr549   1.992       .  S
O545       Cr549   1.988       .  S
O545        C546   1.262       .  A
C546       C2080   1.463       .  S
Cr547       O550   1.776       .  S
Cr548       O550   1.764       .  S
Cr549       O550   1.762       .  S
O551       Cr569   2.037       .  S
O551        C559   1.278       .  A
O552       Cr569   1.940       .  S
O552        C553   1.252       .  A
C553        O554   1.279       .  A
C553        C928   1.484       .  S
O554       Cr570   2.051       .  S
O555       Cr570   1.979       .  S
O555        C556   1.248       .  A
C556        O557   1.255       .  A
C556        C997   1.473       .  S
O557       Cr571   2.009       .  S
O558       Cr571   1.945       .  S
O558        C559   1.263       .  A
C559       C1756   1.468       .  S
O560       Cr569   1.983       .  S
O560        C568   1.254       .  A
O561       Cr569   2.028       .  S
O561        C562   1.269       .  A
C562        O563   1.251       .  A
C562        C904   1.482       .  S
O563       Cr570   1.941       .  S
O564       Cr570   2.083       .  S
O564        C565   1.289       .  A
C565        O566   1.253       .  A
C565       C1912   1.477       .  S
O566       Cr571   1.907       .  S
O567       Cr571   1.986       .  S
O567        C568   1.258       .  A
C568       C1081   1.463       .  S
Cr569       O572   1.771       .  S
Cr570       O572   1.766       .  S
Cr571       O572   1.760       .  S
O573       Cr591   1.974       .  S
O573        C581   1.263       .  A
O574       Cr591   2.012       .  S
O574        C575   1.255       .  A
C575        O576   1.247       .  A
C575       C2017   1.499       .  S
O576       Cr592   1.985       .  S
O577       Cr592   2.050       .  S
O577        C578   1.285       .  A
C578        O579   1.266       .  A
C578        C889   1.508       .  S
O579       Cr593   1.984       .  S
O580       Cr593   1.990       .  S
O580        C581   1.263       .  A
C581       C1060   1.464       .  S
O582       Cr591   1.986       .  S
O582        C590   1.261       .  A
O583       Cr591   1.999       .  S
O583        C584   1.275       .  A
C584        O585   1.287       .  A
C584        C940   1.484       .  S
O585       Cr592   2.029       .  S
O586       Cr592   2.001       .  S
O586        C587   1.255       .  A
C587        O588   1.254       .  A
C587        C880   1.486       .  S
O588       Cr593   1.993       .  S
O589       Cr593   1.952       .  S
O589        C590   1.252       .  A
C590       C1888   1.476       .  S
Cr591       O594   1.772       .  S
Cr592       O594   1.768       .  S
Cr593       O594   1.781       .  S
O595       Cr613   1.972       .  S
O595        C603   1.262       .  A
O596       Cr613   2.005   1_455  S
O596        C597   1.261       .  A
C597        O598   1.256       .  A
C597        C964   1.487       .  S
O598       Cr614   1.991   1_455  S
O599       Cr614   2.023   1_455  S
O599        C600   1.277   1_455  A
C600        O601   1.270       .  A
C600        C892   1.489   1_655  S
O601       Cr615   2.002       .  S
O602       Cr615   1.987       .  S
O602        C603   1.262       .  A
C603       C1708   1.463       .  S
O604       Cr613   1.973       .  S
O604        C612   1.259       .  A
O605       Cr613   1.992       .  S
O605        C606   1.265       .  A
C606        O607   1.276       .  A
C606       C1984   1.480   1_545  S
O607       Cr614   2.026       .  S
O608       Cr614   1.990       .  S
O608        C609   1.255       .  A
C609        O610   1.262       .  A
C609        C901   1.492       .  S
O610       Cr615   2.007       .  S
O611       Cr615   1.991       .  S
O611        C612   1.262       .  A
C612       C1312   1.485       .  S
Cr613       O616   1.768       .  S
Cr614       O616   1.770       .  S
Cr615       O616   1.774       .  S
O617       Cr635   1.984       .  S
O617        C625   1.263       .  A
O618       Cr635   1.986       .  S
O618        C619   1.258       .  A
C619        O620   1.262       .  A
C619       C1072   1.482       .  S
O620       Cr636   2.019       .  S
O621       Cr636   2.036       .  S
O621        C622   1.278       .  A
C622        O623   1.265       .  A
C622        C853   1.502       .  S
O623       Cr637   1.985       .  S
O624       Cr637   1.988       .  S
O624        C625   1.264       .  A
C625       C1948   1.470       .  S
O626       Cr635   1.969       .  S
O626        C634   1.258       .  A
O627       Cr635   1.996       .  S
O627        C628   1.264       .  A
C628        O629   1.271   1_556  A
C628       C1744   1.481   1_556  S
O629       Cr636   2.023   1_554  S
O630       Cr636   1.998       .  S
O630        C631   1.262       .  A
C631        O632   1.264       .  A
C631        C865   1.491       .  S
O632       Cr637   2.002       .  S
O633       Cr637   1.984       .  S
O633        C634   1.261       .  A
C634       C1021   1.465       .  S
Cr635       O638   1.765       .  S
Cr636       O638   1.770       .  S
Cr637       O638   1.766       .  S
O639       Cr657   1.968       .  S
O639        C647   1.261       .  A
O640       Cr657   2.015       .  S
O640        C641   1.266       .  A
C641        O642   1.260       .  A
C641       C1780   1.495       .  S
O642       Cr658   2.000       .  S
O643       Cr658   2.018       .  S
O643        C644   1.273       .  A
C644        O645   1.267       .  A
C644        C856   1.481       .  S
O645       Cr659   1.995       .  S
O646       Cr659   1.985       .  S
O646        C647   1.262       .  A
C647       C1228   1.463   1_556  S
O648       Cr657   1.994       .  S
O648        C656   1.265       .  A
O649       Cr657   1.980       .  S
O649        C650   1.260       .  A
C650        O651   1.272       .  A
C650       C1105   1.470       .  S
O651       Cr658   2.021       .  S
O652       Cr658   1.995       .  S
O652        C653   1.259       .  A
C653        O654   1.261       .  A
C653        C916   1.492       .  S
O654       Cr659   2.003       .  S
O655       Cr659   1.987       .  S
O655        C656   1.260       .  A
C656       C1468   1.491       .  S
Cr657       O660   1.769       .  S
Cr658       O660   1.768       .  S
Cr659       O660   1.776       .  S
O661       Cr679   1.995       .  S
O661        C669   1.265       .  A
O662       Cr679   1.980       .  S
O662        C663   1.263       .  A
C663        O664   1.282       .  A
C663        C841   1.505       .  S
O664       Cr680   2.052       .  S
O665       Cr680   1.992       .  S
O665        C666   1.255       .  A
C666        O667   1.261       .  A
C666       C1240   1.484       .  S
O667       Cr681   2.004       .  S
O668       Cr681   1.966       .  S
O668        C669   1.262       .  A
C669       C1501   1.468       .  S
O670       Cr679   1.961       .  S
O670        C678   1.254       .  A
O671       Cr679   2.001       .  S
O671        C672   1.261       .  A
C672        O673   1.257       .  A
C672        C868   1.490       .  S
O673       Cr680   1.993       .  S
O674       Cr680   2.039       .  S
O674        C675   1.279       .  A
C675        O676   1.263       .  A
C675       C1381   1.485       .  S
O676       Cr681   1.985       .  S
O677       Cr681   1.981       .  S
O677        C678   1.263       .  A
C678       C1156   1.478       .  S
Cr679       O682   1.774       .  S
Cr680       O682   1.772       .  S
Cr681       O682   1.770       .  S
O683       Cr701   1.989       .  S
O683        C691   1.262       .  A
O684       Cr701   2.006       .  S
O684        C685   1.275       .  A
C685        O686   1.283       .  A
C685        C844   1.486       .  S
O686       Cr702   2.021       .  S
O687       Cr702   1.990       .  S
O687        C688   1.248       .  A
C688        O689   1.250       .  A
C688       C1420   1.484       .  S
O689       Cr703   1.995       .  S
O690       Cr703   1.971       .  S
O690        C691   1.261       .  A
C691       C1132   1.467       .  S
O692       Cr701   1.968       .  S
O692        C700   1.257       .  A
O693       Cr701   2.001       .  S
O693        C694   1.253       .  A
C694        O695   1.249       .  A
C694        C829   1.487       .  S
O695       Cr702   1.988       .  S
O696       Cr702   2.020       .  S
O696        C697   1.284       .  A
C697        O698   1.277       .  A
C697       C1216   1.483   1_545  S
O698       Cr703   2.010       .  S
O699       Cr703   1.972       .  S
O699        C700   1.259       .  A
C700       C1816   1.474       .  S
Cr701       O704   1.776       .  S
Cr702       O704   1.771       .  S
Cr703       O704   1.765       .  S
O705       Cr723   2.023       .  S
O705        C713   1.272       .  A
O706       Cr723   1.938       .  S
O706        C707   1.250       .  A
C707        O708   1.277       .  A
C707        C817   1.479       .  S
O708       Cr724   2.050       .  S
O709       Cr724   1.993       .  S
O709        C710   1.256       .  A
C710        O711   1.261       .  A
C710       C1600   1.481       .  S
O711       Cr725   2.014       .  S
O712       Cr725   1.959       .  S
O712        C713   1.263       .  A
C713       C1192   1.461       .  S
O714       Cr723   1.980       .  S
O714        C722   1.255       .  A
O715       Cr723   2.024       .  S
O715        C716   1.269       .  A
C716        O717   1.256       .  A
C716        C877   1.490       .  S
O717       Cr724   1.962       .  S
O718       Cr724   2.066       .  S
O718        C719   1.283       .  A
C719        O720   1.254       .  A
C719       C1333   1.474       .  S
O720       Cr725   1.933       .  S
O721       Cr725   1.989       .  S
O721        C722   1.260       .  A
C722       C1588   1.462       .  S
Cr723       O726   1.772       .  S
Cr724       O726   1.774       .  S
Cr725       O726   1.756       .  S
O727       Cr745   1.990       .  S
O727        C735   1.263   1_455  A
O728       Cr745   1.992       .  S
O728        C729   1.272   1_455  A
C729        O730   1.290       .  A
C729        C820   1.498       .  S
O730       Cr746   2.031   1_655  S
O731       Cr746   1.974   1_655  S
O731        C732   1.242       .  A
C732        O733   1.251       .  A
C732       C1288   1.489       .  S
O733       Cr747   2.007       .  S
O734       Cr747   1.969       .  S
O734        C735   1.262       .  A
C735       C1996   1.463       .  S
O736       Cr745   1.950       .  S
O736        C744   1.250       .  A
O737       Cr745   1.983       .  S
O737        C738   1.248       .  A
C738        O739   1.246       .  A
C738        C805   1.474       .  S
O739       Cr746   1.979       .  S
O740       Cr746   2.028       .  S
O740        C741   1.292       .  A
C741        O742   1.281       .  A
C741       C1672   1.483       .  S
O742       Cr747   2.004   1_455  S
O743       Cr747   1.985   1_455  S
O743        C744   1.261       .  A
C744        C988   1.469       .  S
Cr745       O748   1.770       .  S
Cr746       O748   1.759       .  S
Cr747       O748   1.758   1_655  S
O749       Cr767   1.980       .  S
O749        C757   1.264       .  A
O750       Cr767   2.009       .  S
O750        C751   1.264       .  A
C751        O752   1.254       .  A
C751       C1144   1.484       .  S
O752       Cr768   1.980       .  S
O753       Cr768   2.032       .  S
O753        C754   1.274       .  A
C754        O755   1.260       .  A
C754        C796   1.489       .  S
O755       Cr769   1.972       .  S
O756       Cr769   1.988       .  S
O756        C757   1.263       .  A
C757       C1405   1.465       .  S
O758       Cr767   1.990       .  S
O758        C766   1.263       .  A
O759       Cr767   1.984       .  S
O759        C760   1.263       .  A
C760        O761   1.274       .  A
C760       C1492   1.471       .  S
O761       Cr768   2.020       .  S
O762       Cr768   1.984       .  S
O762        C763   1.258       .  A
C763        O764   1.261       .  A
C763        C808   1.476       .  S
O764       Cr769   1.991       .  S
O765       Cr769   1.971       .  S
O765        C766   1.256       .  A
C766       C1276   1.481       .  S
Cr767       O770   1.764       .  S
Cr768       O770   1.772       .  S
Cr769       O770   1.771       .  S
O771       Cr789   1.991       .  S
O771        C779   1.264       .  A
O772       Cr789   1.988       .  S
O772        C773   1.262       .  A
C773        O774   1.263       .  A
C773       C1528   1.486       .  S
O774       Cr790   2.008       .  S
O775       Cr790   2.008       .  S
O775        C776   1.268       .  A
C776        O777   1.265       .  A
C776        C793   1.469       .  S
O777       Cr791   1.986       .  S
O778       Cr791   1.986       .  S
O778        C779   1.261       .  A
C779       C1357   1.468       .  S
O780       Cr789   1.976       .  S
O780        C788   1.260       .  A
O781       Cr789   1.987       .  S
O781        C782   1.263       .  A
C782        O783   1.267       .  A
C782       C1165   1.466       .  S
O783       Cr790   2.006       .  S
O784       Cr790   2.005       .  S
O784        C785   1.263       .  A
C785        O786   1.263       .  A
C785        C832   1.483       .  S
O786       Cr791   1.989       .  S
O787       Cr791   1.995       .  S
O787        C788   1.261       .  A
C788       C1636   1.482       .  S
Cr789       O792   1.759       .  S
Cr790       O792   1.771       .  S
Cr791       O792   1.766       .  S
C793        C794   1.408   1_545  A
C793        C798   1.400   1_545  A
C794        C795   1.412       .  A
C794        H799   1.081   1_565  S
C795        C796   1.409       .  A
C795        O800   1.371       .  S
C796        C797   1.411       .  A
C797        C798   1.389       .  A
C797        H801   1.083       .  S
C798        O802   1.373       .  S
O800        H804   0.992       .  S
O802        H803   0.991       .  S
C805        C806   1.407       .  A
C805        C810   1.407       .  A
C806        C807   1.396       .  A
C806        H811   1.083       .  S
C807        C808   1.406       .  A
C807        O812   1.371       .  S
C808        C809   1.408       .  A
C809        C810   1.394       .  A
C809        H813   1.084       .  S
C810        O814   1.372       .  S
O812        H816   0.992       .  S
O814        H815   0.992       .  S
C817        C818   1.392       .  A
C817        C822   1.415       .  A
C818        C819   1.402       .  A
C818        H823   1.084       .  S
C819        C820   1.426       .  A
C819        O824   1.373       .  S
C820        C821   1.401       .  A
C821        C822   1.408       .  A
C821        H825   1.083       .  S
C822        O826   1.370       .  S
O824        H828   0.992       .  S
O826        H827   0.992       .  S
C829        C830   1.405       .  A
C829        C834   1.415       .  A
C830        C831   1.402       .  A
C830        H835   1.084       .  S
C831        C832   1.414       .  A
C831        O836   1.372       .  S
C832        C833   1.402       .  A
C833        C834   1.399       .  A
C833        H837   1.084       .  S
C834        O838   1.372       .  S
O836        H840   0.992       .  S
O838        H839   0.992       .  S
C841        C842   1.416       .  A
C841        C846   1.409       .  A
C842        C843   1.400       .  A
C842        H847   1.083       .  S
C843        C844   1.401       .  A
C843        O848   1.372       .  S
C844        C845   1.411       .  A
C845        C846   1.417       .  A
C845        H849   1.079       .  S
C846        O850   1.371       .  S
O848        H852   0.991       .  S
O850        H851   0.992       .  S
C853        C854   1.413       .  A
C853        C858   1.412       .  A
C854        C855   1.397       .  A
C854        H859   1.083       .  S
C855        C856   1.402       .  A
C855        O860   1.373       .  S
C856        C857   1.410       .  A
C857        C858   1.415       .  A
C857        H861   1.083       .  S
C858        O862   1.370       .  S
O860        H864   0.992       .  S
O862        H863   0.991       .  S
C865        C866   1.410   1_556  A
C865        C870   1.409       .  A
C866        C867   1.399       .  A
C866        H871   1.083       .  S
C867        C868   1.408       .  A
C867        O872   1.371       .  S
C868        C869   1.411       .  A
C869        C870   1.404   1_554  A
C869        H873   1.083       .  S
C870        O874   1.372       .  S
O872        H876   0.992       .  S
O874        H875   0.992       .  S
C877        C878   1.409       .  A
C877        C882   1.409       .  A
C878        C879   1.402       .  A
C878        H883   1.084       .  S
C879        C880   1.408   1_655  A
C879        O884   1.372       .  S
C880        C881   1.408       .  A
C881        C882   1.406   1_455  A
C881        H885   1.083       .  S
C882        O886   1.371       .  S
O884        H888   0.992       .  S
O886        H887   0.992   1_655  S
C889        C890   1.415       .  A
C889        C894   1.413       .  A
C890        C891   1.399       .  A
C890        H895   1.083       .  S
C891        C892   1.402       .  A
C891        O896   1.373   1_455  S
C892        C893   1.412       .  A
C893        C894   1.419       .  A
C893        H897   1.083       .  S
C894        O898   1.371       .  S
O896        H900   0.992       .  S
O898        H899   0.992       .  S
C901        C902   1.414       .  A
C901        C906   1.408       .  A
C902        C903   1.405       .  A
C902        H907   1.083       .  S
C903        C904   1.404       .  A
C903        O908   1.371       .  S
C904        C905   1.409       .  A
C905        C906   1.400       .  A
C905        H909   1.084       .  S
C906        O910   1.371       .  S
O908        H912   0.991       .  S
O910        H911   0.992       .  S
C913        C914   1.403       .  A
C913        C918   1.416       .  A
C914        C915   1.399       .  A
C914        H919   1.083       .  S
C915        C916   1.416       .  A
C915        O920   1.372       .  S
C916        C917   1.406       .  A
C917        C918   1.406       .  A
C917        H921   1.083       .  S
C918        O922   1.371       .  S
O920        H924   0.991       .  S
O922        H923   0.992       .  S
C925        C926   1.416       .  A
C925        C930   1.406       .  A
C926        C927   1.401       .  A
C926        H931   1.082       .  S
C927        C928   1.400   1_565  A
C927        O932   1.371       .  S
C928        C929   1.415   1_545  A
C929        C930   1.411       .  A
C929        H933   1.084   1_565  S
C930        O934   1.371       .  S
O932        H936   0.991       .  S
O934        H935   0.992       .  S
C937        C938   1.402       .  A
C937        C942   1.408       .  A
C938        C939   1.401       .  A
C938        H943   1.080       .  S
C939        C940   1.407       .  A
C939        O944   1.369       .  S
C940        C941   1.411       .  A
C941        C942   1.413       .  A
C941        H945   1.084       .  S
C942        O946   1.370       .  S
O944        H948   0.992       .  S
O946        H947   0.991       .  S
C949        C950   1.401       .  A
C949        C954   1.406       .  A
C950        C951   1.397       .  A
C950        H955   1.084       .  S
C951        C952   1.406       .  A
C951        O956   1.371       .  S
C952        C953   1.402       .  A
C953        C954   1.398       .  A
C953        H957   1.084       .  S
C954        O958   1.371       .  S
O956        H960   0.991       .  S
O958        H959   0.992       .  S
C961        C962   1.396       .  A
C961        C966   1.414       .  A
C962        C963   1.398       .  A
C962        H967   1.084       .  S
C963        C964   1.415       .  A
C963        O968   1.370       .  S
C964        C965   1.403       .  A
C965        C966   1.408       .  A
C965        H969   1.083       .  S
C966        O970   1.371       .  S
O968        H972   0.991       .  S
O970        H971   0.991       .  S
C973        C974   1.413       .  A
C973        C978   1.408       .  A
C974        C975   1.403       .  A
C974        H979   1.083       .  S
C975        C976   1.402       .  A
C975        O980   1.372       .  S
C976        C977   1.413       .  A
C977        C978   1.410       .  A
C977        H981   1.084       .  S
C978        O982   1.371       .  S
O980        H984   0.992       .  S
O982        H983   0.992       .  S
C985        C986   1.403       .  A
C985        C990   1.403       .  A
C986        C987   1.388       .  A
C986        H991   1.085   1_565  S
C987        C988   1.405       .  A
C987        O992   1.373       .  S
C988        C989   1.410       .  A
C989        C990   1.400       .  A
C989        H993   1.083       .  S
C990        O994   1.371       .  S
O992        H996   0.992       .  S
O994        H995   0.992       .  S
C997        C998   1.407       .  A
C997       C1002   1.404       .  A
C998        C999   1.403       .  A
C998       H1003   1.084       .  S
C999       C1000   1.406       .  A
C999       O1004   1.372       .  S
C1000      C1001   1.408       .  A
C1001      C1002   1.397       .  A
C1001      H1005   1.084       .  S
C1002      O1006   1.371       .  S
O1004      H1008   0.992       .  S
O1006      H1007   0.991       .  S
C1009      C1010   1.410       .  A
C1009      C1014   1.406       .  A
C1010      C1011   1.402       .  A
C1010      H1015   1.084       .  S
C1011      C1012   1.406       .  A
C1011      O1016   1.372       .  S
C1012      C1013   1.409       .  A
C1013      C1014   1.401       .  A
C1013      H1017   1.084       .  S
C1014      O1018   1.371       .  S
O1016      H1020   0.992       .  S
O1018      H1019   0.992       .  S
C1021      C1022   1.403       .  A
C1021      C1026   1.407       .  A
C1022      C1023   1.395       .  A
C1022      H1027   1.084       .  S
C1023      C1024   1.405       .  A
C1023      O1028   1.372       .  S
C1024      C1025   1.401       .  A
C1025      C1026   1.398       .  A
C1025      H1029   1.080       .  S
C1026      O1030   1.372       .  S
O1028      H1032   0.992       .  S
O1030      H1031   0.992       .  S
C1033      C1034   1.406       .  A
C1033      C1038   1.409       .  A
C1034      C1035   1.413       .  A
C1034      H1039   1.083       .  S
C1035      C1036   1.413       .  A
C1035      O1040   1.372       .  S
C1036      C1037   1.401       .  A
C1037      C1038   1.398       .  A
C1037      H1041   1.083       .  S
C1038      O1042   1.371       .  S
O1040      H1044   0.992       .  S
O1042      H1043   0.992       .  S
C1045      C1046   1.396       .  A
C1045      C1050   1.421       .  A
C1046      C1047   1.402       .  A
C1046      H1051   1.083       .  S
C1047      C1048   1.417       .  A
C1047      O1052   1.372       .  S
C1048      C1049   1.394       .  A
C1049      C1050   1.396       .  A
C1049      H1053   1.084       .  S
C1050      O1054   1.373       .  S
O1052      H1056   0.992       .  S
O1054      H1055   0.992       .  S
C1057      C1058   1.402       .  A
C1057      C1062   1.405       .  A
C1058      C1059   1.396       .  A
C1058      H1063   1.084       .  S
C1059      C1060   1.406       .  A
C1059      O1064   1.372       .  S
C1060      C1061   1.402       .  A
C1061      C1062   1.399       .  A
C1061      H1065   1.084       .  S
C1062      O1066   1.373       .  S
O1064      H1068   0.991       .  S
O1066      H1067   0.992       .  S
C1069      C1070   1.401   1_556  A
C1069      C1074   1.413       .  A
C1070      C1071   1.405       .  A
C1070      H1075   1.084       .  S
C1071      C1072   1.413   1_554  A
C1071      O1076   1.371       .  S
C1072      C1073   1.401       .  A
C1073      C1074   1.403       .  A
C1073      H1077   1.084       .  S
C1074      O1078   1.371       .  S
O1076      H1080   0.991       .  S
O1078      H1079   0.998       .  S
C1081      C1082   1.403       .  A
C1081      C1086   1.406       .  A
C1082      C1083   1.401       .  A
C1082      H1087   1.084       .  S
C1083      C1084   1.405       .  A
C1083      O1088   1.370       .  S
C1084      C1085   1.402       .  A
C1085      C1086   1.391       .  A
C1085      H1089   1.085       .  S
C1086      O1090   1.373       .  S
O1088      H1092   0.991       .  S
O1090      H1091   0.991       .  S
C1093      C1094   1.411       .  A
C1093      C1098   1.408       .  A
C1094      C1095   1.396       .  A
C1094      H1099   1.083       .  S
C1095      C1096   1.405       .  A
C1095      O1100   1.372       .  S
C1096      C1097   1.410       .  A
C1097      C1098   1.404       .  A
C1097      H1101   1.084       .  S
C1098      O1102   1.371       .  S
O1100      H1104   0.992       .  S
O1102      H1103   0.991       .  S
C1105      C1106   1.409       .  A
C1105      C1110   1.406       .  A
C1106      C1107   1.405   1_565  A
C1106      H1111   1.084       .  S
C1107      C1108   1.403       .  A
C1107      O1112   1.371       .  S
C1108      C1109   1.400       .  A
C1109      C1110   1.402   1_545  A
C1109      H1113   1.081       .  S
C1110      O1114   1.373       .  S
O1112      H1116   0.992       .  S
O1114      H1115   0.992       .  S
C1117      C1118   1.415       .  A
C1117      C1122   1.405       .  A
C1118      C1119   1.395       .  A
C1118      H1123   1.083       .  S
C1119      C1120   1.398       .  A
C1119      O1124   1.373       .  S
C1120      C1121   1.413       .  A
C1121      C1122   1.409       .  A
C1121      H1125   1.084       .  S
C1122      O1126   1.370       .  S
O1124      H1128   0.992   1_655  S
O1126      H1127   0.992       .  S
C1129      C1130   1.400   1_556  A
C1129      C1134   1.405       .  A
C1130      C1131   1.395       .  A
C1130      H1135   1.085       .  S
C1131      C1132   1.406       .  A
C1131      O1136   1.373       .  S
C1132      C1133   1.404       .  A
C1133      C1134   1.402   1_554  A
C1133      H1137   1.084       .  S
C1134      O1138   1.372       .  S
O1136      H1140   0.992       .  S
O1138      H1139   0.992       .  S
C1141      C1142   1.398       .  A
C1141      C1146   1.413       .  A
C1142      C1143   1.398       .  A
C1142      H1147   1.084       .  S
C1143      C1144   1.415       .  A
C1143      O1148   1.371       .  S
C1144      C1145   1.400       .  A
C1145      C1146   1.408       .  A
C1145      H1149   1.083       .  S
C1146      O1150   1.370       .  S
O1148      H1152   0.992       .  S
O1150      H1151   0.991       .  S
C1153      C1154   1.396       .  A
C1153      C1158   1.408       .  A
C1154      C1155   1.399       .  A
C1154      H1159   1.084       .  S
C1155      C1156   1.419       .  A
C1155      O1160   1.373       .  S
C1156      C1157   1.402       .  A
C1157      C1158   1.391       .  A
C1157      H1161   1.084       .  S
C1158      O1162   1.373       .  S
O1160      H1164   0.992       .  S
O1162      H1163   0.991       .  S
C1165      C1166   1.406       .  A
C1165      C1170   1.404       .  A
C1166      C1167   1.400       .  A
C1166      H1171   1.083       .  S
C1167      C1168   1.406       .  A
C1167      O1172   1.371       .  S
C1168      C1169   1.408       .  A
C1169      C1170   1.402       .  A
C1169      H1173   1.084       .  S
C1170      O1174   1.372       .  S
O1172      H1176   0.992       .  S
O1174      H1175   0.992       .  S
C1177      C1178   1.412       .  A
C1177      C1182   1.409       .  A
C1178      C1179   1.394       .  A
C1178      H1183   1.082       .  S
C1179      C1180   1.399       .  A
C1179      O1184   1.372       .  S
C1180      C1181   1.412       .  A
C1181      C1182   1.415       .  A
C1181      H1185   1.082       .  S
C1182      O1186   1.371       .  S
O1184      H1188   0.991       .  S
O1186      H1187   0.992       .  S
C1189      C1190   1.407       .  A
C1189      C1194   1.405       .  A
C1190      C1191   1.392       .  A
C1190      H1195   1.084       .  S
C1191      C1192   1.401       .  A
C1191      O1196   1.375       .  S
C1192      C1193   1.404       .  A
C1193      C1194   1.401       .  A
C1193      H1197   1.084       .  S
C1194      O1198   1.368       .  S
O1196      H1200   0.992       .  S
O1198      H1199   0.992       .  S
C1201      C1202   1.409       .  A
C1201      C1206   1.411       .  A
C1202      C1203   1.404       .  A
C1202      H1207   1.083       .  S
C1203      C1204   1.410       .  A
C1203      O1208   1.371       .  S
C1204      C1205   1.409       .  A
C1205      C1206   1.401       .  A
C1205      H1209   1.083       .  S
C1206      O1210   1.372       .  S
O1208      H1212   0.992       .  S
O1210      H1211   0.992       .  S
C1213      C1214   1.402       .  A
C1213      C1218   1.418       .  A
C1214      C1215   1.408       .  A
C1214      H1219   1.083       .  S
C1215      C1216   1.410       .  A
C1215      O1220   1.369       .  S
C1216      C1217   1.401       .  A
C1217      C1218   1.407       .  A
C1217      H1221   1.084       .  S
C1218      O1222   1.371       .  S
O1220      H1224   0.991       .  S
O1222      H1223   0.992       .  S
C1225      C1226   1.412       .  A
C1225      C1230   1.409       .  A
C1226      C1227   1.400       .  A
C1226      H1231   1.084       .  S
C1227      C1228   1.401       .  A
C1227      O1232   1.371   1_554  S
C1228      C1229   1.402       .  A
C1229      C1230   1.389       .  A
C1229      H1233   1.085       .  S
C1230      O1234   1.373       .  S
O1232      H1236   0.991       .  S
O1234      H1235   0.992       .  S
C1237      C1238   1.408       .  A
C1237      C1242   1.405       .  A
C1238      C1239   1.406       .  A
C1238      H1243   1.083       .  S
C1239      C1240   1.405       .  A
C1239      O1244   1.371       .  S
C1240      C1241   1.409       .  A
C1241      C1242   1.401       .  A
C1241      H1245   1.084       .  S
C1242      O1246   1.372       .  S
O1244      H1248   0.991       .  S
O1246      H1247   0.991   1_554  S
C1249      C1250   1.410       .  A
C1249      C1254   1.404       .  A
C1250      C1251   1.416       .  A
C1250      H1255   1.083       .  S
C1251      C1252   1.411       .  A
C1251      O1256   1.370       .  S
C1252      C1253   1.413   1_455  A
C1253      C1254   1.398   1_655  A
C1253      H1257   1.083       .  S
C1254      O1258   1.374       .  S
O1256      H1260   0.992       .  S
O1258      H1259   0.992   1_455  S
C1261      C1262   1.400       .  A
C1261      C1266   1.414   1_556  A
C1262      C1263   1.393   1_656  A
C1262      H1267   1.084       .  S
C1263      C1264   1.415       .  A
C1263      O1268   1.372   1_554  S
C1264      C1265   1.405       .  A
C1265      C1266   1.403   1_455  A
C1265      H1269   1.084       .  S
C1266      O1270   1.372       .  S
O1268      H1272   0.992   1_456  S
O1270      H1271   0.992       .  S
C1273      C1274   1.398       .  A
C1273      C1278   1.410       .  A
C1274      C1275   1.401       .  A
C1274      H1279   1.084       .  S
C1275      C1276   1.418       .  A
C1275      O1280   1.371       .  S
C1276      C1277   1.401       .  A
C1277      C1278   1.393       .  A
C1277      H1281   1.084       .  S
C1278      O1282   1.372       .  S
O1280      H1284   0.992       .  S
O1282      H1283   0.992       .  S
C1285      C1286   1.398       .  A
C1285      C1290   1.413       .  A
C1286      C1287   1.398       .  A
C1286      H1291   1.084       .  S
C1287      C1288   1.415       .  A
C1287      O1292   1.370       .  S
C1288      C1289   1.404       .  A
C1289      C1290   1.409       .  A
C1289      H1293   1.083       .  S
C1290      O1294   1.371       .  S
O1292      H1296   0.991       .  S
O1294      H1295   0.991       .  S
C1297      C1298   1.410       .  A
C1297      C1302   1.408       .  A
C1298      C1299   1.400       .  A
C1298      H1303   1.083       .  S
C1299      C1300   1.408       .  A
C1299      O1304   1.372       .  S
C1300      C1301   1.411       .  A
C1301      C1302   1.403       .  A
C1301      H1305   1.083       .  S
C1302      O1306   1.371       .  S
O1304      H1308   0.992       .  S
O1306      H1307   0.992       .  S
C1309      C1310   1.402       .  A
C1309      C1314   1.404   1_565  A
C1310      C1311   1.393       .  A
C1310      H1315   1.085       .  S
C1311      C1312   1.413   1_565  A
C1311      O1316   1.373       .  S
C1312      C1313   1.411       .  A
C1313      C1314   1.405       .  A
C1313      H1317   1.083       .  S
C1314      O1318   1.371       .  S
O1316      H1320   0.992       .  S
O1318      H1319   0.992       .  S
C1321      C1322   1.413   1_565  A
C1321      C1326   1.408       .  A
C1322      C1323   1.402   1_545  A
C1322      H1327   1.083       .  S
C1323      C1324   1.407       .  A
C1323      O1328   1.372       .  S
C1324      C1325   1.415       .  A
C1325      C1326   1.406       .  A
C1325      H1329   1.083       .  S
C1326      O1330   1.371       .  S
O1328      H1332   0.992       .  S
O1330      H1331   0.992       .  S
C1333      C1334   1.399       .  A
C1333      C1338   1.416       .  A
C1334      C1335   1.400       .  A
C1334      H1339   1.084       .  S
C1335      C1336   1.411       .  A
C1335      O1340   1.369       .  S
C1336      C1337   1.398       .  A
C1337      C1338   1.403       .  A
C1337      H1341   1.084       .  S
C1338      O1342   1.372       .  S
O1340      H1344   0.991       .  S
O1342      H1343   0.991       .  S
C1345      C1346   1.392       .  A
C1345      C1350   1.410       .  A
C1346      C1347   1.397   1_545  A
C1346      H1351   1.084   1_545  S
C1347      C1348   1.425   1_565  A
C1347      O1352   1.373       .  S
C1348      C1349   1.402       .  A
C1349      C1350   1.405       .  A
C1349      H1353   1.083       .  S
C1350      O1354   1.369       .  S
O1352      H1356   0.991       .  S
O1354      H1355   0.992       .  S
C1357      C1358   1.402       .  A
C1357      C1362   1.406       .  A
C1358      C1359   1.394       .  A
C1358      H1363   1.085       .  S
C1359      C1360   1.406       .  A
C1359      O1364   1.374       .  S
C1360      C1361   1.402       .  A
C1361      C1362   1.402       .  A
C1361      H1365   1.084       .  S
C1362      O1366   1.369       .  S
O1364      H1368   0.992       .  S
O1366      H1367   0.992       .  S
C1369      C1370   1.408       .  A
C1369      C1374   1.402       .  A
C1370      C1371   1.405       .  A
C1370      H1375   1.082       .  S
C1371      C1372   1.405       .  A
C1371      O1376   1.371       .  S
C1372      C1373   1.410       .  A
C1373      C1374   1.401       .  A
C1373      H1377   1.084       .  S
C1374      O1378   1.371       .  S
O1376      H1380   0.991       .  S
O1378      H1379   0.991   1_554  S
C1381      C1382   1.401       .  A
C1381      C1386   1.414       .  A
C1382      C1383   1.408       .  A
C1382      H1387   1.084       .  S
C1383      C1384   1.416       .  A
C1383      O1388   1.371       .  S
C1384      C1385   1.404       .  A
C1385      C1386   1.409       .  A
C1385      H1389   1.083       .  S
C1386      O1390   1.370       .  S
O1388      H1392   0.991       .  S
O1390      H1391   0.991       .  S
C1393      C1394   1.403       .  A
C1393      C1398   1.401       .  A
C1394      C1395   1.396       .  A
C1394      H1399   1.085       .  S
C1395      C1396   1.410       .  A
C1395      O1400   1.373       .  S
C1396      C1397   1.412       .  A
C1397      C1398   1.400       .  A
C1397      H1401   1.083       .  S
C1398      O1402   1.370       .  S
O1400      H1404   0.991       .  S
O1402      H1403   0.991       .  S
C1405      C1406   1.400       .  A
C1405      C1410   1.402       .  A
C1406      C1407   1.393       .  A
C1406      H1411   1.085       .  S
C1407      C1408   1.412       .  A
C1407      O1412   1.372       .  S
C1408      C1409   1.412       .  A
C1409      C1410   1.402       .  A
C1409      H1413   1.083       .  S
C1410      O1414   1.371       .  S
O1412      H1416   0.992       .  S
O1414      H1415   0.991       .  S
C1417      C1418   1.408       .  A
C1417      C1422   1.405       .  A
C1418      C1419   1.406   1_655  A
C1418      H1423   1.084       .  S
C1419      C1420   1.407       .  A
C1419      O1424   1.371       .  S
C1420      C1421   1.407       .  A
C1421      C1422   1.401   1_455  A
C1421      H1425   1.084       .  S
C1422      O1426   1.373       .  S
O1424      H1428   0.991       .  S
O1426      H1427   0.992   1_545  S
C1429      C1430   1.409       .  A
C1429      C1434   1.404       .  A
C1430      C1431   1.401       .  A
C1430      H1435   1.083       .  S
C1431      C1432   1.405       .  A
C1431      O1436   1.372       .  S
C1432      C1433   1.408       .  A
C1433      C1434   1.405       .  A
C1433      H1437   1.083       .  S
C1434      O1438   1.371       .  S
O1436      H1440   0.992       .  S
O1438      H1439   0.992       .  S
C1441      C1442   1.412       .  A
C1441      C1446   1.400       .  A
C1442      C1443   1.418       .  A
C1442      H1447   1.083       .  S
C1443      C1444   1.412       .  A
C1443      O1448   1.371       .  S
C1444      C1445   1.411       .  A
C1445      C1446   1.390       .  A
C1445      H1449   1.083       .  S
C1446      O1450   1.372       .  S
O1448      H1452   0.991       .  S
O1450      H1451   0.991       .  S
C1453      C1454   1.410       .  A
C1453      C1458   1.410       .  A
C1454      C1455   1.394       .  A
C1454      H1459   1.084       .  S
C1455      C1456   1.398       .  A
C1455      O1460   1.372       .  S
C1456      C1457   1.399       .  A
C1457      C1458   1.392       .  A
C1457      H1461   1.084   1_655  S
C1458      O1462   1.372       .  S
O1460      H1464   0.991       .  S
O1462      H1463   0.992       .  S
C1465      C1466   1.399       .  A
C1465      C1470   1.409       .  A
C1466      C1467   1.406   1_554  A
C1466      H1471   1.084       .  S
C1467      C1468   1.420       .  A
C1467      O1472   1.372       .  S
C1468      C1469   1.404       .  A
C1469      C1470   1.397   1_556  A
C1469      H1473   1.083       .  S
C1470      O1474   1.372   1_565  S
O1472      H1476   0.992   1_556  S
O1474      H1475   0.992       .  S
C1477      C1478   1.409       .  A
C1477      C1482   1.405       .  A
C1478      C1479   1.401       .  A
C1478      H1483   1.084       .  S
C1479      C1480   1.404       .  A
C1479      O1484   1.372       .  S
C1480      C1481   1.408       .  A
C1481      C1482   1.406       .  A
C1481      H1485   1.083       .  S
C1482      O1486   1.371       .  S
O1484      H1488   0.991       .  S
O1486      H1487   0.991       .  S
C1489      C1490   1.410       .  A
C1489      C1494   1.405       .  A
C1490      C1491   1.402       .  A
C1490      H1495   1.084       .  S
C1491      C1492   1.405       .  A
C1491      O1496   1.371       .  S
C1492      C1493   1.408       .  A
C1493      C1494   1.405       .  A
C1493      H1497   1.083       .  S
C1494      O1498   1.370       .  S
O1496      H1500   0.991       .  S
O1498      H1499   0.991       .  S
C1501      C1502   1.404       .  A
C1501      C1506   1.401       .  A
C1502      C1503   1.394       .  A
C1502      H1507   1.085       .  S
C1503      C1504   1.408       .  A
C1503      O1508   1.373       .  S
C1504      C1505   1.413       .  A
C1505      C1506   1.402       .  A
C1505      H1509   1.083       .  S
C1506      O1510   1.372       .  S
O1508      H1512   0.991       .  S
O1510      H1511   0.992       .  S
C1513      C1514   1.403       .  A
C1513      C1518   1.417       .  A
C1514      C1515   1.396       .  A
C1514      H1519   1.083       .  S
C1515      C1516   1.408       .  A
C1515      O1520   1.373       .  S
C1516      C1517   1.398       .  A
C1517      C1518   1.401       .  A
C1517      H1521   1.084       .  S
C1518      O1522   1.371       .  S
O1520      H1524   0.992       .  S
O1522      H1523   0.992       .  S
C1525      C1526   1.405       .  A
C1525      C1530   1.404       .  A
C1526      C1527   1.400       .  A
C1526      H1531   1.082       .  S
C1527      C1528   1.407       .  A
C1527      O1532   1.372       .  S
C1528      C1529   1.411       .  A
C1529      C1530   1.405       .  A
C1529      H1533   1.083       .  S
C1530      O1534   1.372       .  S
O1532      H1536   0.991       .  S
O1534      H1535   0.992       .  S
C1537      C1538   1.402       .  A
C1537      C1542   1.418       .  A
C1538      C1539   1.402       .  A
C1538      H1543   1.083       .  S
C1539      C1540   1.417       .  A
C1539      O1544   1.371       .  S
C1540      C1541   1.404       .  A
C1541      C1542   1.404       .  A
C1541      H1545   1.083       .  S
C1542      O1546   1.372       .  S
O1544      H1548   0.992       .  S
O1546      H1547   0.992       .  S
C1549      C1550   1.409       .  A
C1549      C1554   1.406       .  A
C1550      C1551   1.409       .  A
C1550      H1555   1.084       .  S
C1551      C1552   1.405       .  A
C1551      O1556   1.370       .  S
C1552      C1553   1.409       .  A
C1553      C1554   1.401       .  A
C1553      H1557   1.084       .  S
C1554      O1558   1.372       .  S
O1556      H1560   0.991       .  S
O1558      H1559   0.992       .  S
C1561      C1562   1.409       .  A
C1561      C1566   1.401       .  A
C1562      C1563   1.412       .  A
C1562      H1567   1.082       .  S
C1563      C1564   1.408   1_655  A
C1563      O1568   1.371   1_655  S
C1564      C1565   1.412       .  A
C1565      C1566   1.397   1_455  A
C1565      H1569   1.083       .  S
C1566      O1570   1.372       .  S
O1568      H1572   0.991       .  S
O1570      H1571   0.992       .  S
C1573      C1574   1.407       .  A
C1573      C1578   1.415       .  A
C1574      C1575   1.401       .  A
C1574      H1579   1.082       .  S
C1575      C1576   1.407       .  A
C1575      O1580   1.372       .  S
C1576      C1577   1.400       .  A
C1577      C1578   1.404       .  A
C1577      H1581   1.080       .  S
C1578      O1582   1.371       .  S
O1580      H1584   0.991       .  S
O1582      H1583   0.991       .  S
C1585      C1586   1.401       .  A
C1585      C1590   1.405       .  A
C1586      C1587   1.403       .  A
C1586      H1591   1.082       .  S
C1587      C1588   1.409       .  A
C1587      O1592   1.372       .  S
C1588      C1589   1.398       .  A
C1589      C1590   1.393       .  A
C1589      H1593   1.085       .  S
C1590      O1594   1.370       .  S
O1592      H1596   0.992       .  S
O1594      H1595   0.991       .  S
C1597      C1598   1.409       .  A
C1597      C1602   1.408       .  A
C1598      C1599   1.406       .  A
C1598      H1603   1.083       .  S
C1599      C1600   1.405       .  A
C1599      O1604   1.371       .  S
C1600      C1601   1.405       .  A
C1601      C1602   1.406       .  A
C1601      H1605   1.083       .  S
C1602      O1606   1.370       .  S
O1604      H1608   0.991       .  S
O1606      H1607   0.992       .  S
C1609      C1610   1.398       .  A
C1609      C1614   1.414       .  A
C1610      C1611   1.398       .  A
C1610      H1615   1.083       .  S
C1611      C1612   1.412       .  A
C1611      O1616   1.372       .  S
C1612      C1613   1.395       .  A
C1613      C1614   1.397       .  A
C1613      H1617   1.081       .  S
C1614      O1618   1.372       .  S
O1616      H1620   0.992       .  S
O1618      H1619   0.992       .  S
C1621      C1622   1.408       .  A
C1621      C1626   1.403       .  A
C1622      C1623   1.391       .  A
C1622      H1627   1.084       .  S
C1623      C1624   1.408       .  A
C1623      O1628   1.372       .  S
C1624      C1625   1.412       .  A
C1625      C1626   1.406       .  A
C1625      H1629   1.083       .  S
C1626      O1630   1.370       .  S
O1628      H1632   0.990       .  S
O1630      H1631   0.991       .  S
C1633      C1634   1.397       .  A
C1633      C1638   1.406       .  A
C1634      C1635   1.402       .  A
C1634      H1639   1.083       .  S
C1635      C1636   1.417       .  A
C1635      O1640   1.372       .  S
C1636      C1637   1.405       .  A
C1637      C1638   1.393       .  A
C1637      H1641   1.084       .  S
C1638      O1642   1.373       .  S
O1640      H1644   0.992       .  S
O1642      H1643   0.992       .  S
C1645      C1646   1.409       .  A
C1645      C1650   1.406       .  A
C1646      C1647   1.404       .  A
C1646      H1651   1.084       .  S
C1647      C1648   1.405   1_655  A
C1647      O1652   1.371   1_655  S
C1648      C1649   1.408   1_455  A
C1649      C1650   1.405       .  A
C1649      H1653   1.083   1_655  S
C1650      O1654   1.372       .  S
O1652      H1656   0.991       .  S
O1654      H1655   0.991       .  S
C1657      C1658   1.408       .  A
C1657      C1662   1.411       .  A
C1658      C1659   1.404       .  A
C1658      H1663   1.083       .  S
C1659      C1660   1.410       .  A
C1659      O1664   1.371       .  S
C1660      C1661   1.409       .  A
C1661      C1662   1.405       .  A
C1661      H1665   1.083       .  S
C1662      O1666   1.372       .  S
O1664      H1668   0.992       .  S
O1666      H1667   0.992       .  S
C1669      C1670   1.412       .  A
C1669      C1674   1.407       .  A
C1670      C1671   1.409   1_545  A
C1670      H1675   1.084       .  S
C1671      C1672   1.407       .  A
C1671      O1676   1.370       .  S
C1672      C1673   1.407       .  A
C1673      C1674   1.403   1_565  A
C1673      H1677   1.082       .  S
C1674      O1678   1.371       .  S
O1676      H1680   0.992       .  S
O1678      H1679   0.992       .  S
C1681      C1682   1.410       .  A
C1681      C1686   1.402       .  A
C1682      C1683   1.413       .  A
C1682      H1687   1.083       .  S
C1683      C1684   1.410       .  A
C1683      O1688   1.371       .  S
C1684      C1685   1.412       .  A
C1685      C1686   1.400       .  A
C1685      H1689   1.083       .  S
C1686      O1690   1.373       .  S
O1688      H1692   0.992       .  S
O1690      H1691   0.992       .  S
C1693      C1694   1.400       .  A
C1693      C1698   1.404       .  A
C1694      C1695   1.393       .  A
C1694      H1699   1.085       .  S
C1695      C1696   1.412       .  A
C1695      O1700   1.372       .  S
C1696      C1697   1.409       .  A
C1697      C1698   1.398       .  A
C1697      H1701   1.083       .  S
C1698      O1702   1.370       .  S
O1700      H1704   0.990       .  S
O1702      H1703   0.992       .  S
C1705      C1706   1.410       .  A
C1705      C1710   1.412   1_455  A
C1706      C1707   1.400       .  A
C1706      H1711   1.083       .  S
C1707      C1708   1.401   1_455  A
C1707      O1712   1.369       .  S
C1708      C1709   1.400       .  A
C1709      C1710   1.392       .  A
C1709      H1713   1.085       .  S
C1710      O1714   1.372       .  S
O1712      H1716   0.991       .  S
O1714      H1715   0.992       .  S
C1717      C1718   1.402       .  A
C1717      C1722   1.418       .  A
C1718      C1719   1.405       .  A
C1718      H1723   1.083       .  S
C1719      C1720   1.411       .  A
C1719      O1724   1.369       .  S
C1720      C1721   1.399       .  A
C1721      C1722   1.405       .  A
C1721      H1725   1.084   1_556  S
C1722      O1726   1.372   1_556  S
O1724      H1728   0.992       .  S
O1726      H1727   0.992       .  S
C1729      C1730   1.406       .  A
C1729      C1734   1.419       .  A
C1730      C1731   1.407       .  A
C1730      H1735   1.083       .  S
C1731      C1732   1.418   1_565  A
C1731      O1736   1.371   1_565  S
C1732      C1733   1.406   1_544  A
C1733      C1734   1.410   1_556  A
C1733      H1737   1.083       .  S
C1734      O1738   1.371   1_554  S
O1736      H1740   0.992   1_545  S
O1738      H1739   0.992       .  S
C1741      C1742   1.410   1_556  A
C1741      C1746   1.412       .  A
C1742      C1743   1.405       .  A
C1742      H1747   1.083       .  S
C1743      C1744   1.406       .  A
C1743      O1748   1.371       .  S
C1744      C1745   1.407   1_554  A
C1745      C1746   1.406       .  A
C1745      H1749   1.084       .  S
C1746      O1750   1.371       .  S
O1748      H1752   0.992       .  S
O1750      H1751   0.992       .  S
C1753      C1754   1.404       .  A
C1753      C1758   1.411       .  A
C1754      C1755   1.385       .  A
C1754      H1759   1.084       .  S
C1755      C1756   1.407       .  A
C1755      O1760   1.373       .  S
C1756      C1757   1.404       .  A
C1757      C1758   1.404       .  A
C1757      H1761   1.084       .  S
C1758      O1762   1.371       .  S
O1760      H1764   0.992       .  S
O1762      H1763   0.991       .  S
C1765      C1766   1.406       .  A
C1765      C1770   1.409       .  A
C1766      C1767   1.401       .  A
C1766      H1771   1.084       .  S
C1767      C1768   1.405       .  A
C1767      O1772   1.373       .  S
C1768      C1769   1.404       .  A
C1769      C1770   1.402       .  A
C1769      H1773   1.084       .  S
C1770      O1774   1.372       .  S
O1772      H1776   0.992       .  S
O1774      H1775   0.991       .  S
C1777      C1778   1.400   1_455  A
C1777      C1782   1.413   1_455  A
C1778      C1779   1.402       .  A
C1778      H1783   1.084   1_655  S
C1779      C1780   1.414       .  A
C1779      O1784   1.370       .  S
C1780      C1781   1.403       .  A
C1781      C1782   1.411       .  A
C1781      H1785   1.082       .  S
C1782      O1786   1.371   1_655  S
O1784      H1788   0.991       .  S
O1786      H1787   0.991       .  S
C1789      C1790   1.413       .  A
C1789      C1794   1.404       .  A
C1790      C1791   1.397       .  A
C1790      H1795   1.084       .  S
C1791      C1792   1.397       .  A
C1791      O1796   1.371       .  S
C1792      C1793   1.405       .  A
C1793      C1794   1.397       .  A
C1793      H1797   1.084   1_545  S
C1794      O1798   1.369       .  S
O1796      H1800   0.991       .  S
O1798      H1799   0.991       .  S
C1801      C1802   1.410       .  A
C1801      C1806   1.400       .  A
C1802      C1803   1.413       .  A
C1802      H1807   1.082       .  S
C1803      C1804   1.409       .  A
C1803      O1808   1.371       .  S
C1804      C1805   1.413   1_545  A
C1805      C1806   1.396   1_565  A
C1805      H1809   1.083       .  S
C1806      O1810   1.373   1_545  S
O1808      H1812   0.992       .  S
O1810      H1811   0.992       .  S
C1813      C1814   1.401       .  A
C1813      C1818   1.402   1_565  A
C1814      C1815   1.392       .  A
C1814      H1819   1.085       .  S
C1815      C1816   1.410   1_565  A
C1815      O1820   1.373       .  S
C1816      C1817   1.408       .  A
C1817      C1818   1.398       .  A
C1817      H1821   1.083       .  S
C1818      O1822   1.372   1_554  S
O1820      H1824   0.992       .  S
O1822      H1823   0.992       .  S
C1825      C1826   1.411       .  A
C1825      C1830   1.411   1_455  A
C1826      C1827   1.396   1_556  A
C1826      H1831   1.083       .  S
C1827      C1828   1.400   1_455  A
C1827      O1832   1.371       .  S
C1828      C1829   1.401       .  A
C1829      C1830   1.397   1_554  A
C1829      H1833   1.085       .  S
C1830      O1834   1.373       .  S
O1832      H1836   0.991       .  S
O1834      H1835   0.992       .  S
C1837      C1838   1.411       .  A
C1837      C1842   1.407       .  A
C1838      C1839   1.414       .  A
C1838      H1843   1.083       .  S
C1839      C1840   1.409       .  A
C1839      O1844   1.371       .  S
C1840      C1841   1.411       .  A
C1841      C1842   1.406       .  A
C1841      H1845   1.083       .  S
C1842      O1846   1.372       .  S
O1844      H1848   0.991       .  S
O1846      H1847   0.992       .  S
C1849      C1850   1.411       .  A
C1849      C1854   1.402       .  A
C1850      C1851   1.392       .  A
C1850      H1855   1.083       .  S
C1851      C1852   1.402       .  A
C1851      O1856   1.372       .  S
C1852      C1853   1.412       .  A
C1853      C1854   1.395       .  A
C1853      H1857   1.083       .  S
C1854      O1858   1.372       .  S
O1856      H1860   0.992       .  S
O1858      H1859   0.992       .  S
C1861      C1862   1.408       .  A
C1861      C1866   1.399       .  A
C1862      C1863   1.399       .  A
C1862      H1867   1.084       .  S
C1863      C1864   1.403       .  A
C1863      O1868   1.371       .  S
C1864      C1865   1.411       .  A
C1865      C1866   1.395       .  A
C1865      H1869   1.084       .  S
C1866      O1870   1.371       .  S
O1868      H1872   0.991       .  S
O1870      H1871   0.992       .  S
C1873      C1874   1.401       .  A
C1873      C1878   1.415       .  A
C1874      C1875   1.391       .  A
C1874      H1879   1.084       .  S
C1875      C1876   1.405       .  A
C1875      O1880   1.373       .  S
C1876      C1877   1.398       .  A
C1877      C1878   1.398       .  A
C1877      H1881   1.084       .  S
C1878      O1882   1.372       .  S
O1880      H1884   0.992       .  S
O1882      H1883   0.992       .  S
C1885      C1886   1.404       .  A
C1885      C1890   1.401       .  A
C1886      C1887   1.392       .  A
C1886      H1891   1.085       .  S
C1887      C1888   1.407       .  A
C1887      O1892   1.372       .  S
C1888      C1889   1.412       .  A
C1889      C1890   1.399       .  A
C1889      H1893   1.083       .  S
C1890      O1894   1.372       .  S
O1892      H1896   0.991       .  S
O1894      H1895   0.992       .  S
C1897      C1898   1.398       .  A
C1897      C1902   1.411       .  A
C1898      C1899   1.390       .  A
C1898      H1903   1.084       .  S
C1899      C1900   1.409       .  A
C1899      O1904   1.369       .  S
C1900      C1901   1.408       .  A
C1901      C1902   1.411       .  A
C1901      H1905   1.083       .  S
C1902      O1906   1.372       .  S
O1904      H1908   0.992       .  S
O1906      H1907   0.991       .  S
C1909      C1910   1.399       .  A
C1909      C1914   1.419       .  A
C1910      C1911   1.401       .  A
C1910      H1915   1.084       .  S
C1911      C1912   1.418       .  A
C1911      O1916   1.372       .  S
C1912      C1913   1.399       .  A
C1913      C1914   1.405       .  A
C1913      H1917   1.084       .  S
C1914      O1918   1.371       .  S
O1916      H1920   0.991       .  S
O1918      H1919   0.991       .  S
C1921      C1922   1.412       .  A
C1921      C1926   1.397       .  A
C1922      C1923   1.415       .  A
C1922      H1927   1.083       .  S
C1923      C1924   1.410   1_655  A
C1923      O1928   1.371   1_655  S
C1924      C1925   1.415       .  A
C1925      C1926   1.392   1_455  A
C1925      H1929   1.083       .  S
C1926      O1930   1.373       .  S
O1928      H1932   0.992   1_455  S
O1930      H1931   0.992       .  S
C1933      C1934   1.394       .  A
C1933      C1938   1.408       .  A
C1934      C1935   1.396       .  A
C1934      H1939   1.083       .  S
C1935      C1936   1.418       .  A
C1935      O1940   1.373       .  S
C1936      C1937   1.404       .  A
C1937      C1938   1.397       .  A
C1937      H1941   1.084       .  S
C1938      O1942   1.372       .  S
O1940      H1944   0.992       .  S
O1942      H1943   0.991       .  S
C1945      C1946   1.408       .  A
C1945      C1950   1.408       .  A
C1946      C1947   1.401       .  A
C1946      H1951   1.083       .  S
C1947      C1948   1.406       .  A
C1947      O1952   1.372       .  S
C1948      C1949   1.404       .  A
C1949      C1950   1.393       .  A
C1949      H1953   1.084       .  S
C1950      O1954   1.372       .  S
O1952      H1956   0.992       .  S
O1954      H1955   0.992       .  S
C1957      C1958   1.415       .  A
C1957      C1962   1.407       .  A
C1958      C1959   1.403   1_655  A
C1958      H1963   1.084       .  S
C1959      C1960   1.400       .  A
C1959      O1964   1.372       .  S
C1960      C1961   1.406       .  A
C1961      C1962   1.409   1_455  A
C1961      H1965   1.084       .  S
C1962      O1966   1.370       .  S
O1964      H1968   0.992       .  S
O1966      H1967   0.992       .  S
C1969      C1970   1.407       .  A
C1969      C1974   1.407       .  A
C1970      C1971   1.403       .  A
C1970      H1975   1.084       .  S
C1971      C1972   1.411       .  A
C1971      O1976   1.372       .  S
C1972      C1973   1.408       .  A
C1973      C1974   1.401       .  A
C1973      H1977   1.083       .  S
C1974      O1978   1.371       .  S
O1976      H1980   0.992       .  S
O1978      H1979   0.991       .  S
C1981      C1982   1.403       .  A
C1981      C1986   1.404       .  A
C1982      C1983   1.403       .  A
C1982      H1987   1.079       .  S
C1983      C1984   1.406       .  A
C1983      O1988   1.370       .  S
C1984      C1985   1.409       .  A
C1985      C1986   1.410       .  A
C1985      H1989   1.083       .  S
C1986      O1990   1.372       .  S
O1988      H1992   0.992       .  S
O1990      H1991   0.990       .  S
C1993      C1994   1.401       .  A
C1993      C1998   1.407       .  A
C1994      C1995   1.398       .  A
C1994      H1999   1.084       .  S
C1995      C1996   1.406       .  A
C1995      O2000   1.372   1_655  S
C1996      C1997   1.400       .  A
C1997      C1998   1.397       .  A
C1997      H2001   1.084       .  S
C1998      O2002   1.373       .  S
O2000      H2004   0.992       .  S
O2002      H2003   0.992       .  S
C2005      C2006   1.396       .  A
C2005      C2010   1.405       .  A
C2006      C2007   1.396       .  A
C2006      H2011   1.084       .  S
C2007      C2008   1.411       .  A
C2007      O2012   1.373       .  S
C2008      C2009   1.403       .  A
C2009      C2010   1.393       .  A
C2009      H2013   1.084       .  S
C2010      O2014   1.372       .  S
O2012      H2016   0.992       .  S
O2014      H2015   0.992       .  S
C2017      C2018   1.404       .  A
C2017      C2022   1.417       .  A
C2018      C2019   1.413       .  A
C2018      H2023   1.082       .  S
C2019      C2020   1.410       .  A
C2019      O2024   1.370       .  S
C2020      C2021   1.400       .  A
C2021      C2022   1.403       .  A
C2021      H2025   1.084       .  S
C2022      O2026   1.370       .  S
O2024      H2028   0.991       .  S
O2026      H2027   0.991       .  S
C2029      C2030   1.408       .  A
C2029      C2034   1.398       .  A
C2030      C2031   1.403       .  A
C2030      H2035   1.084       .  S
C2031      C2032   1.404       .  A
C2031      O2036   1.370       .  S
C2032      C2033   1.413       .  A
C2033      C2034   1.393       .  A
C2033      H2037   1.085       .  S
C2034      O2038   1.372       .  S
O2036      H2040   0.991       .  S
O2038      H2039   0.991       .  S
C2041      C2042   1.415       .  A
C2041      C2046   1.405       .  A
C2042      C2043   1.404       .  A
C2042      H2047   1.083       .  S
C2043      C2044   1.402       .  A
C2043      O2048   1.372       .  S
C2044      C2045   1.417       .  A
C2045      C2046   1.411       .  A
C2045      H2049   1.084       .  S
C2046      O2050   1.371       .  S
O2048      H2052   0.992       .  S
O2050      H2051   0.992       .  S
C2053      C2054   1.409       .  A
C2053      C2058   1.403       .  A
C2054      C2055   1.396       .  A
C2054      H2059   1.084       .  S
C2055      C2056   1.404       .  A
C2055      O2060   1.372       .  S
C2056      C2057   1.408       .  A
C2057      C2058   1.393       .  A
C2057      H2061   1.084       .  S
C2058      O2062   1.372       .  S
O2060      H2064   0.992       .  S
O2062      H2063   0.992       .  S
C2065      C2066   1.407       .  A
C2065      C2070   1.407       .  A
C2066      C2067   1.393       .  A
C2066      H2071   1.084       .  S
C2067      C2068   1.402       .  A
C2067      O2072   1.373       .  S
C2068      C2069   1.399       .  A
C2069      C2070   1.397       .  A
C2069      H2073   1.084       .  S
C2070      O2074   1.367       .  S
O2072      H2076   0.992       .  S
O2074      H2075   0.992       .  S
C2077      C2078   1.400       .  A
C2077      C2082   1.408       .  A
C2078      C2079   1.401       .  A
C2078      H2083   1.084       .  S
C2079      C2080   1.412       .  A
C2079      O2084   1.372       .  S
C2080      C2081   1.396       .  A
C2081      C2082   1.388       .  A
C2081      H2085   1.084       .  S
C2082      O2086   1.370       .  S
O2084      H2088   0.991       .  S
O2086      H2087   0.990       .  S
