geometry optimzed in LAMMPS
_audit_creation_date              2020-12-01 
_audit_creation_method            'lammps2cif' 
_symmetry_space_group_name_H-M    'P1' 
_symmetry_Int_Tables_number       1 
_symmetry_cell_setting            triclinic 
loop_ 
_symmetry_equiv_pos_as_xyz 
  x,y,z 
_cell_length_a                    52.41163058 
_cell_length_b                    52.35200144478123 
_cell_length_c                    57.925385491207976 
_cell_angle_alpha                 90.12220642179325 
_cell_angle_beta                  90.07578260028296 
_cell_angle_gamma                 89.94167508342564 
loop_ 
_atom_site_label 
_atom_site_type_symbol 
_atom_site_fract_x 
_atom_site_fract_y 
_atom_site_fract_z 
_atom_site_charge 
O1          O  0.43888493  0.71509872  0.09263673    -0.81500
C2          C  0.37771126  0.68765207  0.16917609     0.97800
O3          O  0.37050861  0.68912638  0.14847436    -0.70600
O4          O  0.38000753  0.73278237  0.12899186    -0.74200
Al5        Al  0.38763764  0.69879626  0.12086819     1.49000
C6          C  0.39289780  0.75256942  0.12525097     0.93100
O7          O  0.44675565  0.73588904  0.15607075    -0.80500
O8          O  0.45582367  0.66448365  0.13635710    -0.74000
Al9        Al  0.44137911  0.72399341  0.12469609     1.90100
O10         O  0.44968213  0.69808003  0.17158319    -0.73100
O11         O  0.40836904  0.64938358  0.14218635    -0.72900
O12         O  0.40115083  0.68681668  0.17417930    -0.78600
O13         O  0.39056186  0.66400242  0.11089233    -0.76800
O14         O  0.41901695  0.69989621  0.13311674    -1.12900
O15         O  0.39778728  0.70845519  0.09090558    -0.72100
C16         C  0.41883288  0.71151451  0.08090001     0.98600
C17         C  0.45274896  0.72180990  0.17299247     0.95000
Al18       Al  0.42796493  0.67676617  0.15412243     1.55600
O19         O  0.41660281  0.75121993  0.12139890    -0.76800
C20         C  0.39556273  0.64559334  0.12415977     0.99200
C21         C  0.47385047  0.67803892  0.12874000     0.94000
O22         O  0.47099608  0.70187086  0.12589291    -0.82100
O23         O  0.46790678  0.68962629  0.86344202    -0.81500
C24         C  0.37629646  0.67336474  0.81862709     0.97800
O25         O  0.39994386  0.67147225  0.81548184    -0.70600
O26         O  0.44804774  0.68248837  0.81899714    -0.74200
Al27       Al  0.42453098  0.66341974  0.83757568     1.49000
C28         C  0.45166172  0.70616231  0.81615923     0.93100
O29         O  0.41559658  0.74135554  0.86478903    -0.80500
O30         O  0.39291332  0.70467309  0.89565647    -0.74000
Al31       Al  0.43884604  0.71268628  0.86317991     1.90100
O32         O  0.37934923  0.72499024  0.85328338    -0.73100
O33         O  0.38329913  0.65882087  0.87947806    -0.72900
O34         O  0.36737818  0.67911021  0.83819482    -0.78600
O35         O  0.40292481  0.63861408  0.85156359    -0.76800
O36         O  0.41554896  0.68926545  0.85555517    -1.12900
O37         O  0.45033204  0.65226576  0.85787688    -0.72100
C38         C  0.46949112  0.66548658  0.86315943     0.98600
C39         C  0.39296089  0.74420477  0.85769042     0.95000
Al40       Al  0.38351549  0.69186815  0.86579274     1.55600
O41         O  0.44497055  0.72183180  0.83167022    -0.76800
C42         C  0.38887212  0.63832285  0.86920188     0.99200
C43         C  0.41414180  0.70546267  0.90605707     0.94000
O44         O  0.43489790  0.70560328  0.89498790    -0.82100
O45         O  0.72241527  0.55773045  0.09614127    -0.81500
C46         C  0.68630302  0.61360140  0.17328679     0.97800
O47         O  0.69126423  0.62279412  0.15363747    -0.70600
O48         O  0.73644252  0.61508844  0.13596041    -0.74200
Al49       Al  0.70296770  0.60783769  0.12528260     1.49000
C50         C  0.75654224  0.60251240  0.13266031     0.93100
O51         O  0.73785880  0.54931673  0.16022634    -0.80500
O52         O  0.66926318  0.53783165  0.13291445    -0.74000
Al53       Al  0.72880504  0.55448632  0.12836933     1.90100
O54         O  0.69886773  0.54237483  0.17200397    -0.73100
O55         O  0.65131217  0.58435267  0.14050025    -0.72900
O56         O  0.68421004  0.58984324  0.17620292    -0.78600
O57         O  0.66916407  0.60617036  0.11297931    -0.76800
O58         O  0.70325688  0.57579223  0.13569283    -1.12900
O59         O  0.71431628  0.59871352  0.09504099    -0.72100
C60         C  0.71881812  0.57793446  0.08461942     0.98600
C61         C  0.72262439  0.54138056  0.17554932     0.95000
Al62       Al  0.67812305  0.56457143  0.15370183     1.55600
O63         O  0.75552311  0.57935102  0.12699071    -0.76800
C64         C  0.64938273  0.59912625  0.12349665     0.99200
C65         C  0.68452935  0.52023803  0.12730584     0.94000
O66         O  0.70834090  0.52402347  0.12770160    -0.82100
O67         O  0.70553118  0.52558069  0.87463754    -0.81500
C68         C  0.68999939  0.61540233  0.82043477     0.97800
O69         O  0.67822099  0.59449235  0.81984851    -0.70600
O70         O  0.70596555  0.55397573  0.81385807    -0.74200
Al71       Al  0.68066799  0.56316305  0.83566786     1.49000
C72         C  0.72602030  0.54104911  0.81670991     0.93100
O73         O  0.75568188  0.57610529  0.85923056    -0.80500
O74         O  0.69927975  0.59472412  0.89859460    -0.74000
Al75       Al  0.72856714  0.55260215  0.86618916     1.90100
O76         O  0.73705644  0.61132154  0.87016153    -0.73100
O77         O  0.66578865  0.60793620  0.86739022    -0.72900
O78         O  0.70395037  0.62100746  0.83748622    -0.78600
O79         O  0.65181060  0.57132235  0.85460993    -0.76800
O80         O  0.70367495  0.57373194  0.85649238    -1.12900
O81         O  0.67802483  0.52924656  0.84646407    -0.72100
C82         C  0.68735735  0.51658233  0.86282402     0.98600
C83         C  0.75692462  0.59946732  0.86453803     0.95000
Al84       Al  0.70173074  0.60574346  0.86747430     1.55600
O85         O  0.73500840  0.53748906  0.83666002    -0.76800
C86         C  0.64755786  0.59295760  0.86350671     0.99200
C87         C  0.71334389  0.57881148  0.90887863     0.94000
O88         O  0.72717623  0.56341581  0.89765967    -0.82100
O89         O  0.56570162  0.27701318  0.08887511    -0.81500
C90         C  0.61538974  0.30360964  0.17210958     0.97800
O91         O  0.62595815  0.30244260  0.15246382    -0.70600
O92         O  0.61898229  0.25841954  0.13274798    -0.74200
Al93       Al  0.61316073  0.29191837  0.12258684     1.49000
C94         C  0.60701426  0.23865680  0.12693755     0.93100
O95         O  0.55039154  0.25532532  0.14975109    -0.80500
O96         O  0.54488734  0.32723107  0.12886559    -0.74000
Al97       Al  0.55937482  0.26759932  0.11982791     1.90100
O98         O  0.54381399  0.29305631  0.16493464    -0.73100
O99         O  0.59119599  0.34194119  0.14098195    -0.72900
O100        O  0.59144623  0.30454885  0.17372183    -0.78600
O101        O  0.61151694  0.32600225  0.11147444    -0.76800
O102        O  0.58049953  0.29134048  0.13090080    -1.12900
O103        O  0.60727823  0.28115161  0.09111347    -0.72100
C104        C  0.58718703  0.27839350  0.07919675     0.98600
C105        C  0.54054691  0.26910223  0.16526457     0.95000
Al106      Al  0.56882261  0.31471739  0.15042755     1.55600
O107        O  0.58464991  0.24020906  0.11866421    -0.76800
C108        C  0.60553030  0.34500460  0.12368527     0.99200
C109        C  0.52681244  0.31397552  0.12094987     0.94000
O110        O  0.52949767  0.28995038  0.11870486    -0.82100
O111        O  0.53350611  0.28288066  0.86427921    -0.81500
C112        C  0.61972830  0.30445424  0.81406255     0.97800
O113        O  0.59579632  0.30430908  0.81178007    -0.70600
O114        O  0.54817218  0.29146913  0.81838921    -0.74200
Al115      Al  0.57208968  0.31199092  0.83509312     1.49000
C116        C  0.54593977  0.26768942  0.81559048     0.93100
O117        O  0.58927661  0.23547746  0.86081910    -0.80500
O118        O  0.60958551  0.27639889  0.89321335    -0.74000
Al119      Al  0.56358846  0.26175359  0.86139193     1.90100
O120        O  0.62440188  0.25551395  0.85140175    -0.73100
O121        O  0.61322667  0.32217161  0.87557271    -0.72900
O122        O  0.62978905  0.30156751  0.83381014    -0.78600
O123        O  0.59306998  0.33923651  0.84675454    -0.76800
O124        O  0.58413421  0.28734034  0.85314566    -1.12900
O125        O  0.54712377  0.32159749  0.85690388    -0.72100
C126        C  0.53008938  0.30686880  0.86462478     0.98600
C127        C  0.61245960  0.23501463  0.85489298     0.95000
Al128      Al  0.61646116  0.28867342  0.86267860     1.55600
O129        O  0.55568143  0.25254354  0.83007521    -0.76800
C130        C  0.60670283  0.34183052  0.86455249     0.99200
C131        C  0.58924580  0.27143246  0.90402246     0.94000
O132        O  0.56871236  0.26766553  0.89321089    -0.82100
O133        O  0.28034327  0.43024817  0.08634326    -0.81500
C134        C  0.31259433  0.38156414  0.16823386     0.97800
O135        O  0.30918273  0.37054449  0.14898890    -0.70600
O136        O  0.26438871  0.37650664  0.13061190    -0.74200
Al137      Al  0.29734762  0.38261177  0.11942738     1.49000
C138        C  0.24422426  0.38725983  0.12413708     0.93100
O139        O  0.26106902  0.44379097  0.14856576    -0.80500
O140        O  0.33111371  0.45130039  0.12271381    -0.74000
Al141      Al  0.27183804  0.43596976  0.11770831     1.90100
O142        O  0.29969265  0.45262450  0.16093503    -0.73100
O143        O  0.34820243  0.40607612  0.13504764    -0.72900
O144        O  0.31300169  0.40556495  0.16974132    -0.78600
O145        O  0.33097115  0.38372000  0.10723153    -0.76800
O146        O  0.29669200  0.41532864  0.12751109    -1.12900
O147        O  0.28559777  0.38850867  0.08827041    -0.72100
C148        C  0.28279458  0.40878367  0.07660715     0.98600
C149        C  0.27573638  0.45405403  0.16324954     0.95000
Al150      Al  0.32096577  0.42789921  0.14551049     1.55600
O151        O  0.24497118  0.40998725  0.11663028    -0.76800
C152        C  0.35034432  0.39062582  0.11843667     0.99200
C153        C  0.31726230  0.46964775  0.11641287     0.94000
O154        O  0.29315981  0.46672854  0.11628003    -0.82100
O155        O  0.29773345  0.45263491  0.86958540    -0.81500
C156        C  0.31817701  0.36530215  0.81465448     0.97800
O157        O  0.33001939  0.38626653  0.81408069    -0.70600
O158        O  0.30215337  0.42676758  0.80738978    -0.74200
Al159      Al  0.32611012  0.41777865  0.83025159     1.49000
C160        C  0.28277994  0.44075824  0.80948018     0.93100
O161        O  0.25137294  0.40183847  0.84757983    -0.80500
O162        O  0.30612958  0.38666250  0.89210925    -0.74000
Al163      Al  0.27620948  0.42595433  0.85813438     1.90100
O164        O  0.26933776  0.36793991  0.86266970    -0.73100
O165        O  0.34131197  0.37316716  0.86212433    -0.72900
O166        O  0.30432483  0.35932389  0.83154110    -0.78600
O167        O  0.35398778  0.41060027  0.85011640    -0.76800
O168        O  0.30251774  0.40618864  0.84980602    -1.12900
O169        O  0.32671531  0.45157872  0.84226720    -0.72100
C170        C  0.31602680  0.46291587  0.85888511     0.98600
C171        C  0.25022920  0.37876861  0.85379447     0.95000
Al172      Al  0.30506318  0.37459123  0.86119053     1.55600
O173        O  0.27238090  0.44300882  0.82901407    -0.76800
C174        C  0.35879226  0.38921404  0.85895028     0.99200
C175        C  0.28931837  0.40037931  0.90162054     0.94000
O176        O  0.27426103  0.41347808  0.88931640    -0.82100
O177        O  0.72268965  0.42288985  0.39713635    -0.81500
C178        C  0.68340031  0.37164253  0.31884653     0.97800
O179        O  0.68796765  0.36132714  0.33811901    -0.70600
O180        O  0.73430677  0.36633821  0.35408213    -0.74200
Al181      Al  0.70206403  0.37447454  0.36645015     1.49000
C182        C  0.75523989  0.37631839  0.35955085     0.93100
O183        O  0.74055804  0.43183322  0.33416342    -0.80500
O184        O  0.67239076  0.44603618  0.36134265    -0.74000
Al185      Al  0.73044008  0.42642358  0.36544727     1.90100
O186        O  0.70201990  0.44125947  0.32173903    -0.73100
O187        O  0.65177758  0.40109551  0.35275962    -0.72900
O188        O  0.68428396  0.39550451  0.31659959    -0.78600
O189        O  0.66914402  0.37764278  0.37971850    -0.76800
O190        O  0.70395645  0.40682757  0.35724182    -1.12900
O191        O  0.71527824  0.38137361  0.39684756    -0.72100
C192        C  0.71924455  0.40207485  0.40763751     0.98600
C193        C  0.72597855  0.44113790  0.31893538     0.95000
Al194      Al  0.67965640  0.41996677  0.33970941     1.55600
O195        O  0.75562106  0.39909057  0.36694547    -0.76800
C196        C  0.64962561  0.38562809  0.36931171     0.99200
C197        C  0.68788953  0.46351136  0.36644303     0.94000
O198        O  0.71160336  0.45862718  0.36601047    -0.82100
O199        O  0.70924686  0.45047184  0.61370177    -0.81500
C200        C  0.69661125  0.36273519  0.66976624     0.97800
O201        O  0.68293261  0.38262180  0.66994377    -0.70600
O202        O  0.70721202  0.42531693  0.67574513    -0.74200
Al203      Al  0.68391303  0.41400336  0.65326373     1.49000
C204        C  0.72495003  0.44118429  0.67311224     0.93100
O205        O  0.75973925  0.40341144  0.63521229    -0.80500
O206        O  0.70476920  0.38335970  0.59217789    -0.74000
Al207      Al  0.73275751  0.42556864  0.62489581     1.90100
O208        O  0.74409670  0.36835466  0.62027198    -0.73100
O209        O  0.67166714  0.36727036  0.62291739    -0.72900
O210        O  0.71085920  0.35742400  0.65287963    -0.78600
O211        O  0.65675387  0.40435564  0.63357642    -0.76800
O212        O  0.70817928  0.40396647  0.63379523    -1.12900
O213        O  0.68012188  0.44739500  0.64076266    -0.72100
C214        C  0.68988099  0.45915802  0.62400624     0.98600
C215        C  0.76273792  0.38062908  0.62846669     0.95000
Al216      Al  0.70791713  0.37194829  0.62295172     1.55600
O217        O  0.73564872  0.44363672  0.65374499    -0.76800
C218        C  0.65318570  0.38241126  0.62540770     0.99200
C219        C  0.71980023  0.39847464  0.58210769     0.94000
O220        O  0.73455648  0.41278483  0.59367511    -0.82100
O221        O  0.56943994  0.70833901  0.39559406    -0.81500
C222        C  0.63032952  0.68932928  0.31699250     0.97800
O223        O  0.63853974  0.69022229  0.33751330    -0.70600
O224        O  0.62632032  0.73164329  0.35941994    -0.74200
Al225      Al  0.62157334  0.69699011  0.36628848     1.49000
C226        C  0.61208423  0.75025066  0.36395082     0.93100
O227        O  0.56016213  0.73080116  0.33299167    -0.80500
O228        O  0.55611055  0.65797508  0.35182447    -0.74000
Al229      Al  0.56614446  0.71825359  0.36389862     1.90100
O230        O  0.55798723  0.69314606  0.31692186    -0.73100
O231        O  0.60468897  0.64658400  0.34371861    -0.72900
O232        O  0.60695738  0.68580609  0.31287770    -0.78600
O233        O  0.62196980  0.66187042  0.37501587    -0.76800
O234        O  0.59000183  0.69604640  0.35465046    -1.12900
O235        O  0.61089581  0.70438541  0.39704603    -0.72100
C236        C  0.58970129  0.70590265  0.40730586     0.98600
C237        C  0.55412980  0.71687269  0.31595138     0.95000
Al238      Al  0.58215486  0.67286511  0.33329537     1.55600
O239        O  0.58870059  0.74702315  0.36819974    -0.76800
C240        C  0.61815848  0.64340530  0.36149310     0.99200
C241        C  0.53703657  0.67035542  0.35912759     0.94000
O242        O  0.53810114  0.69436746  0.36176443    -0.82100
O243        O  0.54811991  0.69702453  0.61658858    -0.81500
C244        C  0.63748450  0.67504949  0.66862727     0.97800
O245        O  0.61679402  0.66264141  0.66914808    -0.70600
O246        O  0.57605497  0.69034374  0.67756115    -0.74200
Al247      Al  0.58466786  0.66696905  0.65376853     1.49000
C248        C  0.56265991  0.71030295  0.67620324     0.93100
O249        O  0.60081064  0.74205642  0.63734188    -0.80500
O250        O  0.61368970  0.68718821  0.59195927    -0.74000
Al251      Al  0.57585455  0.71774290  0.62721707     1.90100
O252        O  0.63352145  0.72444673  0.62032925    -0.73100
O253        O  0.62889751  0.65206182  0.62175303    -0.72900
O254        O  0.64271584  0.68964936  0.65199032    -0.78600
O255        O  0.59123966  0.63965263  0.63281254    -0.76800
O256        O  0.59563278  0.69106508  0.63454790    -1.12900
O257        O  0.55076373  0.66668217  0.64250987    -0.72100
C258        C  0.53847302  0.67815574  0.62694097     0.98600
C259        C  0.62361927  0.74331023  0.63048737     0.95000
Al260      Al  0.62690232  0.68858139  0.62245778     1.55600
O261        O  0.56029216  0.72148793  0.65703770    -0.76800
C262        C  0.61275824  0.63451391  0.62437713     0.99200
C263        C  0.59886291  0.70342681  0.58296053     0.94000
O264        O  0.58679826  0.71927927  0.59542401    -0.82100
O265        O  0.28685899  0.56082310  0.39333741    -0.81500
C266        C  0.32143942  0.60761229  0.31160842     0.97800
O267        O  0.31949930  0.61855525  0.33100239    -0.70600
O268        O  0.27505957  0.61563844  0.35050232    -0.74200
Al269      Al  0.30817866  0.60672433  0.36060526     1.49000
C270        C  0.25402547  0.60553346  0.35545777     0.93100
O271        O  0.26763077  0.54722502  0.33094895    -0.80500
O272        O  0.33714422  0.53493068  0.35555649    -0.74000
Al273      Al  0.27875566  0.55524920  0.36184809     1.90100
O274        O  0.30571096  0.53780649  0.31806335    -0.73100
O275        O  0.35699709  0.57954193  0.34410044    -0.72900
O276        O  0.32181258  0.58365517  0.30983609    -0.78600
O277        O  0.34218658  0.60274431  0.37205951    -0.76800
O278        O  0.30503230  0.57416828  0.35208013    -1.12900
O279        O  0.29737107  0.60137382  0.39172023    -0.72100
C280        C  0.29214220  0.58162652  0.40328333     0.98600
C281        C  0.28180281  0.53672468  0.31602351     0.95000
Al282      Al  0.32835138  0.56019949  0.33359641     1.55600
O283        O  0.25359007  0.58253301  0.36211063    -0.76800
C284        C  0.36100240  0.59411672  0.36101101     0.99200
C285        C  0.32181763  0.51866773  0.36366687     0.94000
O286        O  0.29813743  0.52372651  0.36428353    -0.82100
O287        O  0.30530367  0.53438475  0.61280285    -0.81500
C288        C  0.31994488  0.62492630  0.66496331     0.97800
O289        O  0.33500675  0.60611419  0.66425116    -0.70600
O290        O  0.30891443  0.56463793  0.67255307    -0.74200
Al291      Al  0.33207078  0.57374372  0.64911502     1.49000
C292        C  0.28865081  0.55171252  0.67154286     0.93100
O293        O  0.25508351  0.58440945  0.62930563    -0.80500
O294        O  0.30989461  0.60375654  0.58817350    -0.74000
Al295      Al  0.28249687  0.56143757  0.62166958     1.90100
O296        O  0.27189671  0.61935709  0.61637879    -0.73100
O297        O  0.34365242  0.61916133  0.61868424    -0.72900
O298        O  0.30450986  0.62929413  0.64879721    -0.78600
O299        O  0.35843899  0.58172675  0.62758826    -0.76800
O300        O  0.30723876  0.58315902  0.62982549    -1.12900
O301        O  0.33462516  0.53938387  0.63919270    -0.72100
C302        C  0.32417809  0.52590213  0.62392685     0.98600
C303        C  0.25267918  0.60741301  0.62333469     0.95000
Al304      Al  0.30745566  0.61503025  0.61890597     1.55600
O305        O  0.27820918  0.54763566  0.65215552    -0.76800
C306        C  0.36214584  0.60379553  0.61956326     0.99200
C307        C  0.29627844  0.58717722  0.57821139     0.94000
O308        O  0.28277914  0.57164168  0.58973523    -0.82100
O309        O  0.43594848  0.27535167  0.39109960    -0.81500
C310        C  0.38252293  0.29931240  0.30853925     0.97800
O311        O  0.37359266  0.29860792  0.32879623    -0.70600
O312        O  0.38055074  0.25509403  0.35012227    -0.74200
Al313      Al  0.38770171  0.28923570  0.35824995     1.49000
C314        C  0.39206935  0.23562034  0.35749892     0.93100
O315        O  0.44864794  0.24918101  0.33095656    -0.80500
O316        O  0.45705477  0.32203473  0.34665138    -0.74000
Al317      Al  0.44096746  0.26375775  0.36043506     1.90100
O318        O  0.45415811  0.28553435  0.31289025    -0.73100
O319        O  0.41071655  0.33750895  0.33690858    -0.72900
O320        O  0.40633810  0.29852561  0.30550588    -0.78600
O321        O  0.39080404  0.32396744  0.36768732    -0.76800
O322        O  0.41993635  0.28726084  0.34869622    -1.12900
O323        O  0.39452048  0.28002793  0.38969232    -0.72100
C324        C  0.41479481  0.27748036  0.40126088     0.98600
C325        C  0.45727821  0.26165990  0.31410072     0.95000
Al326      Al  0.43112394  0.30896595  0.32735348     1.55600
O327        O  0.41518924  0.23717006  0.36385555    -0.76800
C328        C  0.39731037  0.34198962  0.35455675     0.99200
C329        C  0.47437817  0.30908602  0.35613993     0.94000
O330        O  0.47121047  0.28541499  0.35992793    -0.82100
O331        O  0.47210964  0.28519817  0.61581888    -0.81500
C332        C  0.38717806  0.30911999  0.66667637     0.97800
O333        O  0.41109883  0.30932104  0.66906386    -0.70600
O334        O  0.45788440  0.29406354  0.66183906    -0.74200
Al335      Al  0.43510728  0.31589308  0.64568911     1.49000
C336        C  0.46012799  0.27025023  0.66403537     0.93100
O337        O  0.41446119  0.24023628  0.61855804    -0.80500
O338        O  0.39574505  0.28326318  0.58705106    -0.74000
Al339      Al  0.44127950  0.26555380  0.61841963     1.90100
O340        O  0.38062107  0.26190707  0.62815210    -0.73100
O341        O  0.39314316  0.32878606  0.60630941    -0.72900
O342        O  0.37683243  0.30660599  0.64708283    -0.78600
O343        O  0.41530009  0.34409476  0.63485331    -0.76800
O344        O  0.42187209  0.29201745  0.62725118    -1.12900
O345        O  0.46076080  0.32456356  0.62394762    -0.72100
C346        C  0.47712285  0.30885428  0.61638916     0.98600
C347        C  0.39119149  0.24081429  0.62421612     0.95000
Al348      Al  0.38950520  0.29479088  0.61792138     1.55600
O349        O  0.44946010  0.25550774  0.64962274    -0.76800
C350        C  0.40034718  0.34766200  0.61816200     0.99200
C351        C  0.41568752  0.27708613  0.57615572     0.94000
O352        O  0.43618374  0.27222944  0.58666609    -0.82100
O353        O  0.94522965  0.21713693  0.59894797    -0.81500
C354        C  0.89483481  0.18116278  0.67845511     0.97800
O355        O  0.88504890  0.18287455  0.65855096    -0.70600
O356        O  0.88928969  0.22695116  0.63818360    -0.74200
Al357      Al  0.89848402  0.19362891  0.62940535     1.49000
C358        C  0.90068972  0.24798367  0.63664223     0.93100
O359        O  0.95951892  0.23257040  0.66186136    -0.80500
O360        O  0.96899670  0.16327951  0.63737976    -0.74000
Al361      Al  0.95068153  0.22272678  0.63087176     1.90100
O362        O  0.96602965  0.19410367  0.67467007    -0.73100
O363        O  0.92371034  0.14473517  0.64757725    -0.72900
O364        O  0.91871218  0.18059286  0.68128104    -0.78600
O365        O  0.90217026  0.15936603  0.61863153    -0.76800
O366        O  0.93072355  0.19655118  0.63944104    -1.12900
O367        O  0.90553043  0.20394526  0.59880780    -0.72100
C368        C  0.92511140  0.21142386  0.58824366     0.98600
C369        C  0.96931536  0.21775005  0.67651850     0.95000
Al370      Al  0.94320715  0.17285929  0.65844610     1.55600
O371        O  0.92433149  0.24843990  0.63233786    -0.76800
C372        C  0.90949321  0.14066213  0.63052143     0.99200
C373        C  0.98539768  0.17810557  0.62869856     0.94000
O374        O  0.98103014  0.20193278  0.62752436    -0.82100
O375        O  0.96461514  0.19437664  0.38296099    -0.81500
C376        C  0.87650274  0.17502828  0.32783541     0.97800
O377        O  0.89614014  0.16109498  0.32998705    -0.70600
O378        O  0.93917124  0.18406148  0.32213149    -0.74200
Al379      Al  0.92745699  0.16398137  0.34690097     1.49000
C380        C  0.95343122  0.20338948  0.32246588     0.93100
O381        O  0.91683914  0.24218775  0.35820498    -0.80500
O382        O  0.89593246  0.19195150  0.40473294    -0.74000
Al383      Al  0.93901642  0.21612964  0.37017349     1.90100
O384        O  0.88165221  0.22815298  0.37376104    -0.73100
O385        O  0.87963590  0.15576113  0.37578090    -0.72900
O386        O  0.87153550  0.19191660  0.34286736    -0.78600
O387        O  0.91719901  0.13992083  0.36962608    -0.76800
O388        O  0.91740065  0.19075071  0.36342595    -1.12900
O389        O  0.96082979  0.16148654  0.35986845    -0.72100
C390        C  0.97315850  0.17365917  0.37498659     0.98600
C391        C  0.89417262  0.24592144  0.36461310     0.95000
Al392      Al  0.88510513  0.19193180  0.37349747     1.55600
O393        O  0.95589940  0.21642175  0.34072192    -0.76800
C394        C  0.89443685  0.13679747  0.37584781     0.99200
C395        C  0.91212670  0.20681278  0.41386980     0.94000
O396        O  0.92678620  0.22004639  0.40125294    -0.82100
O397        O  0.06644758  0.76718585  0.59226510    -0.81500
C398        C  0.11819071  0.80607997  0.67042081     0.97800
O399        O  0.12838337  0.80111058  0.65112716    -0.70600
O400        O  0.12201711  0.75503193  0.63420776    -0.74200
Al401      Al  0.11495566  0.78803701  0.62250067     1.49000
C402        C  0.10994801  0.73460789  0.63089659     0.93100
O403        O  0.05419798  0.75372666  0.65579624    -0.80500
O404        O  0.04525400  0.82179498  0.62684618    -0.74000
Al405      Al  0.06161625  0.76187550  0.62419180     1.90100
O406        O  0.04706612  0.79312145  0.66645801    -0.73100
O407        O  0.09152578  0.83991780  0.63654202    -0.72900
O408        O  0.09426554  0.80672658  0.67248482    -0.78600
O409        O  0.11355832  0.82142694  0.60940431    -0.76800
O410        O  0.08249414  0.78768483  0.63177231    -1.12900
O411        O  0.10743872  0.77562921  0.59211089    -0.72100
C412        C  0.08691664  0.77092362  0.58135717     0.98600
C413        C  0.04485819  0.76946575  0.67007467     0.95000
Al414      Al  0.07053054  0.81316487  0.64894944     1.55600
O415        O  0.08688252  0.73521621  0.62471856    -0.76800
C416        C  0.10703553  0.84140564  0.61999919     0.99200
C417        C  0.02789884  0.80655927  0.62054644     0.94000
O418        O  0.03141761  0.78265936  0.62149800    -0.82100
O419        O  0.04285580  0.78982880  0.37199016    -0.81500
C420        C  0.13423217  0.80637954  0.32095858     0.97800
O421        O  0.11400415  0.81948665  0.32087109    -0.70600
O422        O  0.07270577  0.79335674  0.31146523    -0.74200
Al423      Al  0.08165762  0.81646448  0.33539732     1.49000
C424        C  0.05846053  0.77401509  0.31288113     0.93100
O425        O  0.09200207  0.73983377  0.35335994    -0.80500
O426        O  0.10972586  0.79369907  0.39740448    -0.74000
Al427      Al  0.06911131  0.76678713  0.36216396     1.90100
O428        O  0.12671808  0.75580167  0.36845373    -0.73100
O429        O  0.12629619  0.82856558  0.36795667    -0.72900
O430        O  0.13859489  0.79053769  0.33694238    -0.78600
O431        O  0.08921680  0.84297807  0.35690441    -0.76800
O432        O  0.09100385  0.79167537  0.35468910    -1.12900
O433        O  0.04733123  0.81902314  0.34546071    -0.72100
C434        C  0.03440697  0.80906816  0.36135329     0.98600
C435        C  0.11465136  0.73702803  0.36028097     0.95000
Al436      Al  0.12250933  0.79203037  0.36670038     1.55600
O437        O  0.05441206  0.76357163  0.33213955    -0.76800
C438        C  0.11080650  0.84688734  0.36583659     0.99200
C439        C  0.09317381  0.77924216  0.40637914     0.94000
O440        O  0.07911900  0.76532364  0.39385368    -0.82100
O441        O  0.78262492  0.93361397  0.59660703    -0.81500
C442        C  0.82137372  0.87561982  0.67119804     0.97800
O443        O  0.81742004  0.86682626  0.65109027    -0.70600
O444        O  0.77172052  0.87387562  0.63397358    -0.74200
Al445      Al  0.80434771  0.88275394  0.62322557     1.49000
C446        C  0.75114920  0.88587075  0.63162288     0.93100
O447        O  0.76893682  0.93952256  0.66091985    -0.80500
O448        O  0.83718563  0.95149930  0.63322620    -0.74000
Al449      Al  0.77733521  0.93541679  0.62885774     1.90100
O450        O  0.80802235  0.94699313  0.67208648    -0.73100
O451        O  0.85493057  0.90498634  0.64008438    -0.72900
O452        O  0.82145059  0.89928953  0.67500217    -0.78600
O453        O  0.83742563  0.88679701  0.61045594    -0.76800
O454        O  0.80318402  0.91420039  0.63501689    -1.12900
O455        O  0.79185768  0.89269259  0.59344800    -0.72100
C456        C  0.78643626  0.91401053  0.58442250     0.98600
C457        C  0.78439938  0.94738546  0.67608742     0.95000
Al458      Al  0.82819938  0.92480771  0.65339529     1.55600
O459        O  0.75106277  0.90955231  0.62748646    -0.76800
C460        C  0.85714629  0.89233686  0.62172598     0.99200
C461        C  0.82234345  0.96936335  0.62742580     0.94000
O462        O  0.79831959  0.96612799  0.62828512    -0.82100
O463        O  0.79705710  0.95351072  0.37688186    -0.81500
C464        C  0.81985698  0.86366745  0.32761946     0.97800
O465        O  0.83457996  0.88273326  0.32926253    -0.70600
O466        O  0.81162480  0.92503349  0.31869767    -0.74200
Al467      Al  0.83082633  0.91491192  0.34465989     1.49000
C468        C  0.79197004  0.93873622  0.31747063     0.93100
O469        O  0.75237552  0.90231982  0.35345407    -0.80500
O470        O  0.80159877  0.88760867  0.40336178    -0.74000
Al471      Al  0.77692371  0.92645680  0.36508919     1.90100
O472        O  0.76671598  0.86959589  0.37265648    -0.73100
O473        O  0.83853426  0.86941225  0.37646458    -0.72900
O474        O  0.80342951  0.85894880  0.34301696    -0.78600
O475        O  0.85484917  0.90611519  0.36816880    -0.76800
O476        O  0.80350395  0.90547322  0.36085790    -1.12900
O477        O  0.83201200  0.94888293  0.35644060    -0.72100
C478        C  0.81823856  0.96176232  0.36996614     0.98600
C479        C  0.74922689  0.88006106  0.36124208     0.95000
Al480      Al  0.80266252  0.87418925  0.37291654     1.55600
O481        O  0.77760960  0.94122857  0.33481778    -0.76800
C482        C  0.85768618  0.88380714  0.37581385     0.99200
C483        C  0.78526671  0.90352905  0.41074543     0.94000
O484        O  0.77171458  0.91649593  0.39684881    -0.82100
O485        O  0.22640720  0.05621292  0.59472776    -0.81500
C486        C  0.19914460  0.10473486  0.67875374     0.97800
O487        O  0.20076556  0.11479959  0.65904583    -0.70600
O488        O  0.24471702  0.10846409  0.63965227    -0.74200
Al489      Al  0.21132714  0.10247023  0.62954524     1.49000
C490        C  0.26458254  0.09704504  0.63325988     0.93100
O491        O  0.24929395  0.03908503  0.65536660    -0.80500
O492        O  0.17741479  0.03270815  0.63603076    -0.74000
Al493      Al  0.23635077  0.04893580  0.62564324     1.90100
O494        O  0.21197313  0.03308435  0.67148279    -0.73100
O495        O  0.16205054  0.07873412  0.64756212    -0.72900
O496        O  0.19923843  0.08072706  0.68074312    -0.78600
O497        O  0.17698874  0.10084008  0.61865715    -0.76800
O498        O  0.21246658  0.06955360  0.63742437    -1.12900
O499        O  0.22216262  0.09753388  0.59832764    -0.72100
C500        C  0.22484443  0.07808238  0.58566049     0.98600
C501        C  0.23580107  0.02957874  0.67120657     0.95000
Al502      Al  0.18967126  0.05734871  0.65719822     1.55600
O503        O  0.26326254  0.07464624  0.62492619    -0.76800
C504        C  0.15841703  0.09398386  0.63102465     0.99200
C505        C  0.19074454  0.01530605  0.62701763     0.94000
O506        O  0.21449650  0.01869112  0.62387237    -0.82100
O507        O  0.20634614  0.03022625  0.38203382    -0.81500
C508        C  0.19234917  0.11469180  0.32219167     0.97800
O509        O  0.17902404  0.09461101  0.32286860    -0.70600
O510        O  0.20138232  0.05053410  0.31966289    -0.74200
Al511      Al  0.17930450  0.06486951  0.34179215     1.49000
C512        C  0.22070655  0.03665030  0.32218156     0.93100
O513        O  0.25622382  0.07600968  0.35808321    -0.80500
O514        O  0.20339642  0.09972822  0.40103173    -0.74000
Al515      Al  0.22939957  0.05467109  0.36952331     1.90100
O516        O  0.24102593  0.11254279  0.37029117    -0.73100
O517        O  0.16855758  0.11386786  0.37081698    -0.72900
O518        O  0.20620885  0.12125020  0.33897819    -0.78600
O519        O  0.15244023  0.07715202  0.36071759    -0.76800
O520        O  0.20443592  0.07596313  0.36022070    -1.12900
O521        O  0.17504445  0.03305641  0.35695074    -0.72100
C522        C  0.18589538  0.02173199  0.37344876     0.98600
C523        C  0.25923448  0.09939241  0.36252364     0.95000
Al524      Al  0.20477765  0.10876527  0.36950135     1.55600
O525        O  0.23220781  0.03562435  0.34125655    -0.76800
C526        C  0.14959537  0.09937533  0.36848635     0.99200
C527        C  0.21822447  0.08447878  0.41119419     0.94000
O528        O  0.23177956  0.06870578  0.40009180    -0.82100
O529        O  0.79963059  0.03936432  0.12051567    -0.81500
C530        C  0.81980415  0.13010271  0.17150320     0.97800
O531        O  0.83267156  0.10967006  0.17199345    -0.70600
O532        O  0.80522234  0.06905854  0.18133869    -0.74200
Al533      Al  0.82854806  0.07712462  0.15739503     1.49000
C534        C  0.78602971  0.05466394  0.17975972     0.93100
O535        O  0.75325294  0.09158565  0.14022484    -0.80500
O536        O  0.80797605  0.10490187  0.09514784    -0.74000
Al537      Al  0.77823378  0.06693975  0.13067407     1.90100
O538        O  0.77042698  0.12420414  0.12288833    -0.73100
O539        O  0.84293670  0.12084644  0.12461490    -0.72900
O540        O  0.80495844  0.13496818  0.15486828    -0.78600
O541        O  0.85551332  0.08327976  0.13628865    -0.76800
O542        O  0.80440194  0.08737194  0.13788195    -1.12900
O543        O  0.82925489  0.04278461  0.14699008    -0.72100
C544        C  0.81829255  0.02995428  0.13144181     0.98600
C545        C  0.75138809  0.11402102  0.13243727     0.95000
Al546      Al  0.80638145  0.11850345  0.12540833     1.55600
O547        O  0.77498244  0.05175704  0.16055994    -0.76800
C548        C  0.86039314  0.10453478  0.12724349     0.99200
C549        C  0.79161254  0.09008606  0.08638566     0.94000
O550        O  0.77636358  0.07749834  0.09889637    -0.82100
O551        O  0.78809654  0.06098421  0.90113906    -0.81500
C552        C  0.82487958  0.11610950  0.82429717     0.97800
O553        O  0.81829214  0.12557206  0.84341289    -0.70600
O554        O  0.77233884  0.11676372  0.85819299    -0.74200
Al555      Al  0.80473318  0.11091844  0.87107810     1.49000
C556        C  0.75231611  0.10502781  0.86344913     0.93100
O557        O  0.77174030  0.05088755  0.83786881    -0.80500
O558        O  0.84017406  0.04112411  0.86481823    -0.74000
Al559      Al  0.78094036  0.05689105  0.86921298     1.90100
O560        O  0.81088006  0.04572583  0.82492507    -0.73100
O561        O  0.85752355  0.08749513  0.85903988    -0.72900
O562        O  0.82678976  0.09240584  0.82155529    -0.78600
O563        O  0.83731742  0.11002729  0.88514876    -0.76800
O564        O  0.80583832  0.07856955  0.86141336    -1.12900
O565        O  0.79106049  0.10282222  0.90097864    -0.72100
C566        C  0.78903344  0.08199352  0.91191203     0.98600
C567        C  0.78695648  0.04372954  0.82222482     0.95000
Al568      Al  0.83160451  0.06752999  0.84415337     1.55600
O569        O  0.75351419  0.08213500  0.87039513    -0.76800
C570        C  0.85775040  0.10277176  0.87590931     0.99200
C571        C  0.82604363  0.02284427  0.87049114     0.94000
O572        O  0.80208724  0.02616736  0.87002984    -0.82100
O573        O  0.95648130  0.79100555  0.11294048    -0.81500
C574        C  0.87196756  0.81179990  0.17125013     0.97800
O575        O  0.89132350  0.82597401  0.16883538    -0.70600
O576        O  0.93291153  0.79969084  0.17545598    -0.74200
Al577      Al  0.92223037  0.82146545  0.15144940     1.49000
C578        C  0.94789085  0.78098107  0.17377365     0.93100
O579        O  0.90802246  0.74467823  0.13924037    -0.80500
O580        O  0.88789884  0.79695367  0.09361804    -0.74000
Al581      Al  0.93083350  0.76976541  0.12641167     1.90100
O582        O  0.87321736  0.76030244  0.12421061    -0.73100
O583        O  0.87461586  0.83297609  0.12359842    -0.72900
O584        O  0.86599467  0.79568170  0.15593772    -0.78600
O585        O  0.91307185  0.84672831  0.12940704    -0.76800
O586        O  0.91065494  0.79586733  0.13427867    -1.12900
O587        O  0.95551878  0.82224866  0.13824698    -0.72100
C588        C  0.96647927  0.81052849  0.12201952     0.98600
C589        C  0.88477975  0.74212747  0.13388315     0.95000
Al590      Al  0.87822181  0.79641086  0.12503723     1.55600
O591        O  0.94951031  0.76868277  0.15502142    -0.76800
C592        C  0.89048179  0.85109172  0.12318308     0.99200
C593        C  0.90249577  0.78099111  0.08387526     0.94000
O594        O  0.91674829  0.76639993  0.09573030    -0.82100
O595        O  0.93278324  0.76821521  0.89888633    -0.81500
C596        C  0.88646276  0.80208416  0.81617189     0.97800
O597        O  0.87589964  0.80001832  0.83570832    -0.70600
O598        O  0.87913970  0.75670622  0.85757640    -0.74200
Al599      Al  0.88774184  0.79059648  0.86578714     1.49000
C600        C  0.89094599  0.73595532  0.85997854     0.93100
O601        O  0.95080769  0.75110004  0.83714191    -0.80500
O602        O  0.95883290  0.82094890  0.86022258    -0.74000
Al603      Al  0.94012491  0.76179882  0.86740187     1.90100
O604        O  0.95766948  0.78912991  0.82340119    -0.73100
O605        O  0.91409542  0.83934550  0.84762226    -0.72900
O606        O  0.91049032  0.80295567  0.81440465    -0.78600
O607        O  0.89052820  0.82536717  0.87567361    -0.76800
O608        O  0.92052198  0.78762493  0.85723651    -1.12900
O609        O  0.89328747  0.78172872  0.89722933    -0.72100
C610        C  0.91242391  0.77473803  0.90881041     0.98600
C611        C  0.96113407  0.76543056  0.82243035     0.95000
Al612      Al  0.93400355  0.81088482  0.83823070     1.55600
O613        O  0.91432077  0.73598361  0.86522396    -0.76800
C614        C  0.89884727  0.84366833  0.86384309     0.99200
C615        C  0.97452269  0.80643654  0.87038741     0.94000
O616        O  0.96999310  0.78271403  0.87184628    -0.82100
O617        O  0.20410897  0.95565012  0.11460716    -0.81500
C618        C  0.18237210  0.86842769  0.16845838     0.97800
O619        O  0.16874715  0.88845071  0.16752257    -0.70600
O620        O  0.19368332  0.93114470  0.17410267    -0.74200
Al621      Al  0.17196111  0.91972537  0.15029614     1.49000
C622        C  0.21468197  0.94274591  0.17341761     0.93100
O623        O  0.24908159  0.90305454  0.13529802    -0.80500
O624        O  0.19397133  0.88739859  0.09147181    -0.74000
Al625      Al  0.22417933  0.92768571  0.12530437     1.90100
O626        O  0.23148270  0.86977443  0.11950754    -0.73100
O627        O  0.15938829  0.87233637  0.12165630    -0.72900
O628        O  0.19749590  0.86255518  0.15234159    -0.78600
O629        O  0.14574759  0.91061682  0.12895057    -0.76800
O630        O  0.19735790  0.90812805  0.13268903    -1.12900
O631        O  0.17054271  0.95279538  0.13695382    -0.72100
C632        C  0.18361164  0.96484740  0.12238145     0.98600
C633        C  0.25066616  0.88026137  0.12842207     0.95000
Al634      Al  0.19576291  0.87601862  0.12214957     1.55600
O635        O  0.22784049  0.94329838  0.15518151    -0.76800
C636        C  0.14137482  0.88819897  0.12226616     0.99200
C637        C  0.20980353  0.90207315  0.08179330     0.94000
O638        O  0.22491857  0.91596101  0.09356088    -0.82100
O639        O  0.21910694  0.92166883  0.89743701    -0.81500
C640        C  0.19159858  0.86931813  0.81618295     0.97800
O641        O  0.19311442  0.85932734  0.83602977    -0.70600
O642        O  0.23666781  0.86605651  0.85620725    -0.74200
Al643      Al  0.20316314  0.87283631  0.86557825     1.49000
C644        C  0.25659050  0.87706877  0.86294290     0.93100
O645        O  0.24117388  0.93351292  0.83611595    -0.80500
O646        O  0.16965722  0.94128458  0.85823212    -0.74000
Al647      Al  0.22888306  0.92621201  0.86657019     1.90100
O648        O  0.20323400  0.94089991  0.82165048    -0.73100
O649        O  0.15357627  0.89573304  0.84703238    -0.72900
O650        O  0.19059900  0.89323883  0.81387088    -0.78600
O651        O  0.16891763  0.87481239  0.87622229    -0.76800
O652        O  0.20450544  0.90517076  0.85635531    -1.12900
O653        O  0.21309525  0.88003446  0.89685523    -0.72100
C654        C  0.21566700  0.90084096  0.90773783     0.98600
C655        C  0.22722321  0.94343428  0.82072127     0.95000
Al656      Al  0.18124224  0.91682040  0.83685313     1.55600
O657        O  0.25561391  0.90027033  0.86921901    -0.76800
C658        C  0.15001546  0.88152067  0.86428251     0.99200
C659        C  0.18324117  0.95918199  0.86594664     0.94000
O660        O  0.20734306  0.95664561  0.86693415    -0.82100
O661        O  0.04421310  0.19733403  0.11425089    -0.81500
C662        C  0.12486588  0.18341011  0.17813870     0.97800
O663        O  0.10677499  0.16810263  0.17425986    -0.70600
O664        O  0.06419053  0.19330815  0.17785175    -0.74200
Al665      Al  0.07718821  0.17085165  0.15529474     1.49000
C666        C  0.05047370  0.21286517  0.17539736     0.93100
O667        O  0.08825010  0.24836182  0.13921982    -0.80500
O668        O  0.11559409  0.19509904  0.09917637    -0.74000
Al669      Al  0.06787399  0.22076386  0.12768582     1.90100
O670        O  0.12572165  0.23313139  0.13003200    -0.73100
O671        O  0.12735700  0.16033502  0.13028438    -0.72900
O672        O  0.13152598  0.19917928  0.16284211    -0.78600
O673        O  0.08890168  0.14514944  0.13469972    -0.76800
O674        O  0.08892252  0.19629193  0.13796426    -1.12900
O675        O  0.04504119  0.16766862  0.14062313    -0.72100
C676        C  0.03494377  0.17743367  0.12303938     0.98600
C677        C  0.11176102  0.25160365  0.13583618     0.95000
Al678      Al  0.12217676  0.19694102  0.13114036     1.55600
O679        O  0.04826592  0.22357265  0.15591267    -0.76800
C680        C  0.11191655  0.14183214  0.12923710     0.99200
C681        C  0.10012467  0.20869196  0.08787891     0.94000
O682        O  0.08328114  0.22221504  0.09771114    -0.82100
O683        O  0.07612923  0.20686371  0.90440753    -0.81500
C684        C  0.12258853  0.17378844  0.82195658     0.97800
O685        O  0.13403589  0.17691583  0.84100857    -0.70600
O686        O  0.12904079  0.22229160  0.85904239    -0.74200
Al687      Al  0.12267350  0.18943320  0.87057822     1.49000
C688        C  0.11833669  0.24248242  0.86563995     0.93100
O689        O  0.06211740  0.22677790  0.84293803    -0.80500
O690        O  0.05278813  0.15678311  0.86806729    -0.74000
Al691      Al  0.06991079  0.21569367  0.87336281     1.90100
O692        O  0.05228285  0.18855907  0.82998664    -0.73100
O693        O  0.09752582  0.13896589  0.85584392    -0.72900
O694        O  0.09861750  0.17395388  0.82088049    -0.78600
O695        O  0.12100089  0.15609960  0.88301491    -0.76800
O696        O  0.08979648  0.19052438  0.86311723    -1.12900
O697        O  0.11766787  0.20169671  0.90167320    -0.72100
C698        C  0.09779096  0.20486816  0.91380781     0.98600
C699        C  0.05182569  0.21260716  0.82796044     0.95000
Al700      Al  0.07640914  0.16654661  0.84525695     1.55600
O701        O  0.09607775  0.24186324  0.87401463    -0.76800
C702        C  0.11305096  0.13673855  0.87236871     0.99200
C703        C  0.03522711  0.17134235  0.87489503     0.94000
O704        O  0.03879531  0.19532807  0.87522207    -0.82100
C705        C  0.11750515  0.22576734  0.02638543    -0.05200
C706        C  0.10186484  0.20866704  0.01392717     0.09000
C707        C  0.08601654  0.19136761  0.02580074    -0.02600
C708        C  0.08569324  0.19125507  0.05008396    -0.00800
C709        C  0.10123962  0.20841301  0.06252544    -0.04500
C710        C  0.11737511  0.22546941  0.05071568     0.02600
C711        C  0.10195596  0.20876058  0.98819697     0.09400
C712        C  0.06992582  0.17382430  0.01295852     0.35300
C713        C  0.13390852  0.24252685  0.06362482     0.38700
C714        C  0.11825136  0.19211732  0.97602572    -0.04800
C715        C  0.11719681  0.19093881  0.95172091     0.02300
C716        C  0.09986310  0.20667660  0.93940649    -0.04400
C717        C  0.08408742  0.22394419  0.95180299    -0.00700
C718        C  0.08503311  0.22477493  0.97609404    -0.03200
C719        C  0.13584947  0.17591435  0.98867747     0.36000
C720        C  0.06724965  0.24142439  0.93969869     0.39700
C721        C  0.13335698  0.17276412  0.93968628     0.38800
C722        C  0.06841936  0.24198822  0.98876629     0.35700
C723        C  0.13346793  0.24378542  0.01410892     0.36400
C724        C  0.06953291  0.17331479  0.06227455     0.39600
N725        N  0.14638579  0.15819886  0.93032931    -0.38400
N726        N  0.14985248  0.16305176  0.99885670    -0.40000
N727        N  0.05380653  0.25537970  0.93009033    -0.37800
N728        N  0.05518061  0.25568185  0.99891449    -0.40100
N729        N  0.05709427  0.15986005  0.00268073    -0.39900
N730        N  0.05668634  0.15886775  0.07187113    -0.37500
N731        N  0.14720769  0.25599736  0.07395740    -0.38600
N732        N  0.14608852  0.25822928  0.00425295    -0.40300
C733        C  0.15826705  0.08028172  0.87389073    -0.05200
C734        C  0.14226606  0.06077741  0.88241616     0.09000
C735        C  0.11729940  0.06692414  0.88983569    -0.02600
C736        C  0.10782532  0.09202009  0.88719882    -0.00800
C737        C  0.12357691  0.11124690  0.87793173    -0.04500
C738        C  0.14908095  0.10550257  0.87198877     0.02600
C739        C  0.15062463  0.03344477  0.88050798     0.09400
C740        C  0.10110027  0.04716066  0.89937594     0.35300
C741        C  0.16549184  0.12521892  0.86259173     0.38700
C742        C  0.16993631  0.02350175  0.89496661    -0.04800
C743        C  0.17987147  0.99876158  0.89095938     0.02300
C744        C  0.17078539  0.98390941  0.87223179    -0.04400
C745        C  0.15029198  0.99343033  0.85865519    -0.00700
C746        C  0.14050562  0.01809937  0.86268386    -0.03200
C747        C  0.18000544  0.03903711  0.91361343     0.36000
C748        C  0.14000507  0.97867799  0.83952522     0.39700
C749        C  0.19895869  0.98839016  0.90650120     0.38800
C750        C  0.12073370  0.02824327  0.84766574     0.35700
C751        C  0.18373112  0.07407832  0.86578754     0.36400
C752        C  0.08175355  0.09802479  0.89360486     0.39600
N753        N  0.21404977  0.98003027  0.91899224    -0.38400
N754        N  0.18818390  0.05151505  0.92837886    -0.40000
N755        N  0.13169924  0.96707420  0.82423958    -0.37800
N756        N  0.10495646  0.03635718  0.83575323    -0.40100
N757        N  0.08817126  0.03134547  0.90692165    -0.39900
N758        N  0.06094493  0.10289625  0.89864157    -0.37500
N759        N  0.17869075  0.14083605  0.85508820    -0.38600
N760        N  0.20400264  0.06903184  0.85931044    -0.40300
C761        C  0.18007082  0.03727476  0.11905629    -0.05200
C762        C  0.15497683  0.04095869  0.11072753     0.09000
C763        C  0.14083715  0.01960375  0.10301162    -0.02600
C764        C  0.15062657  0.99462984  0.10585193    -0.00800
C765        C  0.17511018  0.99087105  0.11549390    -0.04500
C766        C  0.19018024  0.01234719  0.12126304     0.02600
C767        C  0.14215235  0.06651943  0.11367536     0.09400
C768        C  0.11577560  0.02337304  0.09295809     0.35300
C769        C  0.21529157  0.00875061  0.13132905     0.38700
C770        C  0.14803176  0.08739543  0.09921689    -0.04800
C771        C  0.13774384  0.11191537  0.10388815     0.02300
C772        C  0.12126435  0.11571232  0.12296448    -0.04400
C773        C  0.11461008  0.09447421  0.13681915    -0.00700
C774        C  0.12500834  0.07011509  0.13219650    -0.03200
C775        C  0.16464663  0.08358132  0.07952036     0.36000
C776        C  0.09805632  0.09774810  0.15667190     0.39700
C777        C  0.14378316  0.13312544  0.08878214     0.38800
C778        C  0.11858366  0.04869912  0.14697191     0.35700
C779        C  0.19493384  0.05909213  0.12665379     0.36400
C780        C  0.13516225  0.97271460  0.09959310     0.39600
N781        N  0.14857552  0.15003206  0.07670187    -0.38400
N782        N  0.17786759  0.08055364  0.06376059    -0.40000
N783        N  0.08486523  0.10023514  0.17252757    -0.37800
N784        N  0.11346688  0.03149305  0.15858278    -0.40100
N785        N  0.09580198  0.02642298  0.08487726    -0.39900
N786        N  0.12281750  0.95517399  0.09477375    -0.37500
N787        N  0.23526549  0.00585620  0.13946121    -0.38600
N788        N  0.20674735  0.07654850  0.13267257    -0.40300
C789        C  0.21276194  0.92561832  0.01963940    -0.05200
C790        C  0.21130412  0.90234657  0.00737850     0.09000
C791        C  0.20946141  0.87910795  0.01949991    -0.02600
C792        C  0.20987941  0.87901774  0.04378642    -0.00800
C793        C  0.21092594  0.90233787  0.05619898    -0.04500
C794        C  0.21223277  0.92567862  0.04397762     0.02600
C795        C  0.21242216  0.90215033  0.98162981     0.09400
C796        C  0.20699824  0.85524484  0.00688572     0.35300
C797        C  0.21219464  0.94987951  0.05622381     0.38700
C798        C  0.23469675  0.89344309  0.97035010    -0.04800
C799        C  0.23552844  0.89236061  0.94608010     0.02300
C800        C  0.21450749  0.90096336  0.93306802    -0.04400
C801        C  0.19257589  0.91047770  0.94424148    -0.00700
C802        C  0.19123266  0.91037602  0.96851058    -0.03200
C803        C  0.25680803  0.88582101  0.98377352     0.36000
C804        C  0.17140377  0.92026515  0.93068834     0.39700
C805        C  0.25818228  0.88294725  0.93444484     0.38800
C806        C  0.16795460  0.91832391  0.97998911     0.35700
C807        C  0.21475639  0.94952840  0.00713844     0.36400
C808        C  0.21022754  0.85476129  0.05589336     0.39600
N809        N  0.27621440  0.87543335  0.92511891    -0.38400
N810        N  0.27438731  0.87975873  0.99456737    -0.40000
N811        N  0.15463925  0.92806990  0.91974499    -0.37800
N812        N  0.14935895  0.92458304  0.98915695    -0.40100
N813        N  0.20500503  0.83626263  0.99677214    -0.39900
N814        N  0.21061440  0.83541598  0.06552332    -0.37500
N815        N  0.21211480  0.96939311  0.06564805    -0.38600
N816        N  0.21623346  0.96857778  0.99712982    -0.40300
C817        C  0.08019063  0.86065281  0.85692181    -0.05200
C818        C  0.07402103  0.85192052  0.87921077     0.09000
C819        C  0.09238530  0.85347128  0.89692941    -0.02600
C820        C  0.11708514  0.86314712  0.89230176    -0.00800
C821        C  0.12357668  0.87192682  0.86979216    -0.04500
C822        C  0.10464759  0.87056300  0.85216230     0.02600
C823        C  0.04845861  0.83979471  0.88324519     0.09400
C824        C  0.08577943  0.84494011  0.91997247     0.35300
C825        C  0.11027147  0.87819306  0.82863065     0.38700
C826        C  0.04597837  0.81301356  0.88240014    -0.04800
C827        C  0.02159882  0.80166571  0.88063402     0.02300
C828        C  0.99939766  0.81724742  0.87897361    -0.04400
C829        C  0.00194700  0.84387851  0.88310420    -0.00700
C830        C  0.02638334  0.85505563  0.88504493    -0.03200
C831        C  0.06872132  0.79716591  0.88208971     0.36000
C832        C  0.97950650  0.85997201  0.88539087     0.39700
C833        C  0.01990455  0.77404518  0.87939041     0.38800
C834        C  0.02895699  0.88242920  0.88806426     0.35700
C835        C  0.06132602  0.85888563  0.83858856     0.36400
C836        C  0.13562955  0.86360636  0.91090325     0.39600
N837        N  0.01867773  0.75197842  0.87853000    -0.38400
N838        N  0.08687662  0.78458177  0.88189655    -0.40000
N839        N  0.96160248  0.87275727  0.88724445    -0.37800
N840        N  0.03104827  0.90428011  0.89050224    -0.40100
N841        N  0.08047388  0.83814251  0.93834680    -0.39900
N842        N  0.15029117  0.86350142  0.92586187    -0.37500
N843        N  0.11462492  0.88427446  0.80984890    -0.38600
N844        N  0.04627576  0.85754288  0.82400315    -0.40300
C845        C  0.01959168  0.85384268  0.10086657    -0.05200
C846        C  0.04116569  0.84193436  0.11077394     0.09000
C847        C  0.03841665  0.81781863  0.12139814    -0.02600
C848        C  0.01406098  0.80643000  0.12324220    -0.00800
C849        C  0.99222318  0.81935319  0.11496161    -0.04500
C850        C  0.99515403  0.84275111  0.10321247     0.02600
C851        C  0.06627371  0.85577839  0.11189074     0.09400
C852        C  0.06050111  0.80532000  0.13142519     0.35300
C853        C  0.97292592  0.85557865  0.09385304     0.38700
C854        C  0.07016602  0.87480074  0.12884201    -0.04800
C855        C  0.09412108  0.88693089  0.13106246     0.02300
C856        C  0.11481355  0.87953228  0.11677942    -0.04400
C857        C  0.11041960  0.86141129  0.09898425    -0.00700
C858        C  0.08628006  0.84960527  0.09659696    -0.03200
C859        C  0.04970550  0.88107637  0.14473508     0.36000
C860        C  0.13058783  0.85521548  0.08278021     0.39700
C861        C  0.09760790  0.90604350  0.14896615     0.38800
C862        C  0.08206593  0.83077225  0.07860759     0.35700
C863        C  0.02255637  0.87786531  0.08877340     0.36400
C864        C  0.01130270  0.78197026  0.13470508     0.39600
N865        N  0.10026992  0.92135094  0.16320813    -0.38400
N866        N  0.03337580  0.88593915  0.15744070    -0.40000
N867        N  0.14661105  0.85035212  0.06975750    -0.37800
N868        N  0.07868197  0.81571161  0.06427961    -0.40100
N869        N  0.07813070  0.79538911  0.13945875    -0.39900
N870        N  0.00913109  0.76241036  0.14376186    -0.37500
N871        N  0.95521131  0.86580166  0.08629901    -0.38600
N872        N  0.02504900  0.89700074  0.07907699    -0.40300
C873        C  0.90637760  0.75417371  0.02254831    -0.05200
C874        C  0.90560550  0.77673866  0.00926203     0.09000
C875        C  0.90330023  0.80060563  0.02044073    -0.02600
C876        C  0.90246794  0.80201020  0.04475024    -0.00800
C877        C  0.90308070  0.77941180  0.05816778    -0.04500
C878        C  0.90474545  0.75543791  0.04686089     0.02600
C879        C  0.90755896  0.77548706  0.98344412     0.09400
C880        C  0.90184122  0.82380542  0.00682815     0.35300
C881        C  0.90401490  0.73194408  0.06010663     0.38700
C882        C  0.88667990  0.76699039  0.97008149    -0.04800
C883        C  0.88852881  0.76592472  0.94578113     0.02300
C884        C  0.91094119  0.77446577  0.93452759    -0.04400
C885        C  0.93173043  0.78327045  0.94801561    -0.00700
C886        C  0.93019119  0.78328058  0.97233155    -0.03200
C887        C  0.86311060  0.75971007  0.98139621     0.36000
C888        C  0.95441038  0.79340846  0.93701627     0.39700
C889        C  0.86758298  0.75525748  0.93248815     0.38800
C890        C  0.95190205  0.79153997  0.98600612     0.35700
C891        C  0.90904393  0.72962070  0.01113527     0.36400
C892        C  0.90198425  0.82689007  0.05585694     0.39600
N893        N  0.85094674  0.74663234  0.92188200    -0.38400
N894        N  0.84432490  0.75397813  0.99048511    -0.40000
N895        N  0.97252505  0.80162906  0.92839926    -0.37800
N896        N  0.96918723  0.79817340  0.99692114    -0.40100
N897        N  0.90071628  0.84227645  0.99593283    -0.39900
N898        N  0.90163760  0.84674078  0.06468120    -0.37500
N899        N  0.90334330  0.71321020  0.07066361    -0.38600
N900        N  0.91113035  0.71006164  0.00197869    -0.40300
C901        C  0.83344578  0.95055873  0.88189856    -0.05200
C902        C  0.85982293  0.94707113  0.87851227     0.09000
C903        C  0.87558726  0.96858341  0.87591839    -0.02600
C904        C  0.86491963  0.99338120  0.87482886    -0.00800
C905        C  0.83788937  0.99706550  0.87603980    -0.04500
C906        C  0.82248692  0.97529219  0.88086186     0.02600
C907        C  0.87063763  0.92068880  0.87517939     0.09400
C908        C  0.90295628  0.96499903  0.87365357     0.35300
C909        C  0.79526802  0.97782127  0.88467599     0.38700
C910        C  0.87390815  0.91115671  0.85258881    -0.04800
C911        C  0.88367583  0.88635735  0.84894058     0.02300
C912        C  0.88983453  0.87042980  0.86797363    -0.04400
C913        C  0.88704166  0.88024542  0.89063392    -0.00700
C914        C  0.87768525  0.90535595  0.89417973    -0.03200
C915        C  0.86701435  0.92698280  0.83298132     0.36000
C916        C  0.89470726  0.86489990  0.91028242     0.39700
C917        C  0.88682916  0.87727376  0.82540797     0.38800
C918        C  0.87566012  0.91564767  0.91734503     0.35700
C919        C  0.81746885  0.92837637  0.88582837     0.36400
C920        C  0.88230618  0.01470840  0.87196993     0.39600
N921        N  0.88947129  0.87025676  0.80659850    -0.38400
N922        N  0.86152849  0.93965243  0.81739394    -0.40000
N923        N  0.90092500  0.85259527  0.92589045    -0.37800
N924        N  0.87415997  0.92394817  0.93582581    -0.40100
N925        N  0.92475859  0.96212716  0.87183478    -0.39900
N926        N  0.89642585  0.03147992  0.86956891    -0.37500
N927        N  0.77354773  0.97959393  0.88788681    -0.38600
N928        N  0.80487495  0.91059253  0.88903113    -0.40300
C929        C  0.91389400  0.14804697  0.87720102    -0.05200
C930        C  0.93214623  0.13359372  0.88943689     0.09000
C931        C  0.92477378  0.11046039  0.90004245    -0.02600
C932        C  0.89973267  0.10098446  0.89700199    -0.00800
C933        C  0.88220836  0.11444973  0.88311621    -0.04500
C934        C  0.88896933  0.13859962  0.87418054     0.02600
C935        C  0.95965310  0.14124069  0.88829221     0.09400
C936        C  0.94326100  0.09606477  0.91334514     0.35300
C937        C  0.87058148  0.15354889  0.86121348     0.38700
C938        C  0.96913443  0.16162787  0.90175063    -0.04800
C939        C  0.99403944  0.17112437  0.89793704     0.02300
C940        C  0.00972614  0.16018158  0.88061748    -0.04400
C941        C  0.00027112  0.13907049  0.86769452    -0.00700
C942        C  0.97545840  0.12972438  0.87160304    -0.03200
C943        C  0.95297668  0.17310500  0.91922831     0.36000
C944        C  0.01518729  0.12768589  0.84922694     0.39700
C945        C  0.00339718  0.19213217  0.91192427     0.38800
C946        C  0.96564359  0.10882489  0.85764369     0.35700
C947        C  0.92117694  0.17208590  0.86665803     0.36400
C948        C  0.89186183  0.07761102  0.90828235     0.39600
N949        N  0.01078697  0.20894449  0.92307107    -0.38400
N950        N  0.94003899  0.18225144  0.93315759    -0.40000
N951        N  0.02685741  0.11845082  0.83444612    -0.37800
N952        N  0.95775218  0.09218362  0.84656835    -0.40100
N953        N  0.95810452  0.08459107  0.92390050    -0.39900
N954        N  0.88543775  0.05914114  0.91754225    -0.37500
N955        N  0.85624638  0.16593338  0.85093232    -0.38600
N956        N  0.92698155  0.19125594  0.85826658    -0.40300
C957        C  0.84031168  0.96884944  0.10055746    -0.05200
C958        C  0.84923556  0.95410511  0.11931570     0.09000
C959        C  0.84637268  0.96359603  0.14198022    -0.02600
C960        C  0.83622159  0.98817052  0.14580885    -0.00800
C961        C  0.82748339  0.00326538  0.12702494    -0.04500
C962        C  0.82843485  0.99277929  0.10446914     0.02600
C963        C  0.86123071  0.92828304  0.11567076     0.09400
C964        C  0.85381712  0.94793487  0.16154227     0.35300
C965        C  0.81688675  0.00613710  0.08523390     0.38700
C966        C  0.88722088  0.92443484  0.12098054    -0.04800
C967        C  0.89741509  0.89946346  0.12226878     0.02300
C968        C  0.88181132  0.87784308  0.11730746    -0.04400
C969        C  0.85663943  0.88231680  0.10891800    -0.00700
C970        C  0.84620014  0.90721368  0.10899449    -0.03200
C971        C  0.90327962  0.94634119  0.12604358     0.36000
C972        C  0.84109112  0.86150513  0.10016234     0.39700
C973        C  0.92374346  0.89653937  0.12960442     0.38800
C974        C  0.81951335  0.91100605  0.10321048     0.35700
C975        C  0.84382552  0.95959399  0.07716017     0.36400
C976        C  0.83423234  0.99742913  0.16939157     0.39600
N977        N  0.94473363  0.89445535  0.13556778    -0.38400
N978        N  0.91603925  0.96380481  0.13013685    -0.40000
N979        N  0.82864775  0.84500770  0.09305643    -0.37800
N980        N  0.79824212  0.91408391  0.09859276    -0.40100
N981        N  0.85975526  0.93557005  0.17719422    -0.39900
N982        N  0.83289695  0.00480696  0.18819305    -0.37500
N983        N  0.80709118  0.01615742  0.06979629    -0.38600
N984        N  0.84670612  0.95222595  0.05849414    -0.40300
C985        C  0.93072350  0.11991339  0.13477577    -0.05200
C986        C  0.93706776  0.13007803  0.11293836     0.09000
C987        C  0.91871324  0.12973589  0.09507278    -0.02600
C988        C  0.89361365  0.12118453  0.09952969    -0.00800
C989        C  0.88718221  0.11135911  0.12149529    -0.04500
C990        C  0.90615946  0.10996263  0.13883682     0.02600
C991        C  0.96276361  0.14215447  0.10946565     0.09400
C992        C  0.92575802  0.13813122  0.07211184     0.35300
C993        C  0.90005690  0.09979901  0.16147233     0.38700
C994        C  0.98501823  0.12698690  0.11004871    -0.04800
C995        C  0.00913457  0.13858168  0.11263462     0.02300
C996        C  0.01124268  0.16552407  0.11372266    -0.04400
C997        C  0.98941653  0.18059847  0.10922901    -0.00700
C998        C  0.96510714  0.16901714  0.10809453    -0.03200
C999        C  0.98291901  0.09937334  0.10904300     0.36000
C1000       C  0.99167668  0.20808501  0.10694993     0.39700
C1001       C  0.03175027  0.12267045  0.11419422     0.38800
C1002       C  0.94241282  0.18485141  0.10716155     0.35700
C1003       C  0.94925603  0.12054949  0.15342492     0.36400
C1004       C  0.87445860  0.12259882  0.08149513     0.39600
N1005       N  0.04962779  0.10973103  0.11525995    -0.38400
N1006       N  0.98121983  0.07735091  0.10826667    -0.40000
N1007       N  0.99350026  0.23000733  0.10502818    -0.37800
N1008       N  0.92427690  0.19745922  0.10651325    -0.40100
N1009       N  0.93149677  0.14470139  0.05377744    -0.39900
N1010       N  0.85926526  0.12400061  0.06703630    -0.37500
N1011       N  0.89524890  0.09181264  0.17956551    -0.38600
N1012       N  0.96406957  0.12105970  0.16825295    -0.40300
C1013       C  0.80117618  0.10125494  0.97467059    -0.05200
C1014       C  0.78679653  0.08291217  0.98670527     0.09000
C1015       C  0.77268046  0.06449773  0.97435273    -0.02600
C1016       C  0.77305350  0.06430264  0.94996095    -0.00800
C1017       C  0.78788770  0.08245225  0.93770415    -0.04500
C1018       C  0.80190404  0.10101731  0.95036664     0.02600
C1019       C  0.78703883  0.08303643  0.01252081     0.09400
C1020       C  0.75788250  0.04565069  0.98684145     0.35300
C1021       C  0.81784041  0.11964627  0.93876133     0.38700
C1022       C  0.76680509  0.09440451  0.02491032    -0.04800
C1023       C  0.76808491  0.09630873  0.04917921     0.02300
C1024       C  0.78997330  0.08759475  0.06103228    -0.04400
C1025       C  0.81030491  0.07647174  0.04863031    -0.00700
C1026       C  0.80855689  0.07362556  0.02449004    -0.03200
C1027       C  0.74505659  0.10479716  0.01258132     0.36000
C1028       C  0.83296673  0.06783760  0.06075286     0.39700
C1029       C  0.74737356  0.10820421  0.06188841     0.38800
C1030       C  0.82893740  0.06112489  0.01185251     0.35700
C1031       C  0.81545322  0.12038962  0.98747248     0.36400
C1032       C  0.75754485  0.04578252  0.93765128     0.39600
N1033       N  0.73090683  0.11773115  0.07205647    -0.38400
N1034       N  0.72776887  0.11314762  0.00268854    -0.40000
N1035       N  0.85099075  0.06095754  0.07049978    -0.37800
N1036       N  0.84510447  0.05108365  0.00170189    -0.40100
N1037       N  0.74607147  0.03064840  0.99683903    -0.39900
N1038       N  0.74515709  0.03099334  0.92787435    -0.37500
N1039       N  0.83061153  0.13478935  0.92997245    -0.38600
N1040       N  0.82685937  0.13555641  0.99773437    -0.40300
C1041       C  0.21860596  0.98346557  0.27786560    -0.05200
C1042       C  0.23480128  0.99318485  0.26056426     0.09000
C1043       C  0.24946636  0.01525423  0.26513808    -0.02600
C1044       C  0.24667559  0.02839074  0.28638553    -0.00800
C1045       C  0.22847013  0.02004844  0.30264157    -0.04500
C1046       C  0.21489518  0.99719264  0.29852718     0.02600
C1047       C  0.23253485  0.98265748  0.23654404     0.09400
C1048       C  0.26623023  0.02519512  0.24745116     0.35300
C1049       C  0.19567037  0.98861791  0.31472634     0.38700
C1050       C  0.21137239  0.98997027  0.22298974    -0.04800
C1051       C  0.20621462  0.97741592  0.20199339     0.02300
C1052       C  0.22245626  0.95768859  0.19407101    -0.04400
C1053       C  0.24476470  0.95173075  0.20666859    -0.00700
C1054       C  0.24957914  0.96392161  0.22810565    -0.03200
C1055       C  0.19440800  0.01001679  0.23108568     0.36000
C1056       C  0.26227375  0.93259143  0.19792562     0.39700
C1057       C  0.18403327  0.98487413  0.18853618     0.38800
C1058       C  0.27149997  0.95664536  0.24186063     0.35700
C1059       C  0.20454203  0.96002926  0.27373891     0.36400
C1060       C  0.26125965  0.05137691  0.29093669     0.39600
N1061       N  0.16630806  0.99092335  0.17793149    -0.38400
N1062       N  0.18092719  0.02598667  0.23761189    -0.40000
N1063       N  0.27637372  0.91748513  0.19081698    -0.37800
N1064       N  0.28898583  0.95083657  0.25288922    -0.40100
N1065       N  0.27954252  0.03311522  0.23324797    -0.39900
N1066       N  0.27281225  0.06976804  0.29462450    -0.37500
N1067       N  0.17990257  0.98153683  0.32710446    -0.38600
N1068       N  0.19336692  0.94132406  0.27044813    -0.40300
C1069       C  0.17774163  0.18267123  0.22366463    -0.05200
C1070       C  0.16481480  0.17103989  0.24212488     0.09000
C1071       C  0.13838879  0.16665027  0.24071336    -0.02600
C1072       C  0.12503040  0.17266937  0.22045430    -0.00800
C1073       C  0.13833137  0.18187887  0.20078193    -0.04500
C1074       C  0.16469478  0.18774753  0.20283120     0.02600
C1075       C  0.17901070  0.15973648  0.26184637     0.09400
C1076       C  0.12514631  0.15440020  0.25975714     0.35300
C1077       C  0.17893303  0.19755877  0.18331938     0.38700
C1078       C  0.17801342  0.17139060  0.28377050    -0.04800
C1079       C  0.18407666  0.15710608  0.30363283     0.02300
C1080       C  0.19082825  0.13104518  0.30148172    -0.04400
C1081       C  0.19379750  0.12013347  0.27930991    -0.00700
C1082       C  0.18824331  0.13459364  0.25953744    -0.03200
C1083       C  0.16889044  0.19744983  0.28588520     0.36000
C1084       C  0.20144607  0.09369363  0.27659134     0.39700
C1085       C  0.18110622  0.16859451  0.32628308     0.38800
C1086       C  0.19011952  0.12298103  0.23679913     0.35700
C1087       C  0.20468692  0.18842284  0.22592677     0.36400
C1088       C  0.09755995  0.16896268  0.22025523     0.39600
N1089       N  0.17866467  0.17771067  0.34436715    -0.38400
N1090       N  0.16148710  0.21820685  0.28750365    -0.40000
N1091       N  0.20719536  0.07261401  0.27364063    -0.37800
N1092       N  0.19160224  0.11376934  0.21866834    -0.40100
N1093       N  0.11465943  0.14446932  0.27483620    -0.39900
N1094       N  0.07571484  0.16578428  0.22072461    -0.37500
N1095       N  0.19036600  0.20539577  0.16779334    -0.38600
N1096       N  0.22616247  0.19310391  0.22782827    -0.40300
C1097       C  0.23981640  0.06501743  0.52195771    -0.05200
C1098       C  0.22639618  0.08489780  0.51096380     0.09000
C1099       C  0.21412699  0.10371511  0.52435381    -0.02600
C1100       C  0.21453736  0.10225637  0.54868621    -0.00800
C1101       C  0.22633358  0.08113178  0.55992268    -0.04500
C1102       C  0.23973034  0.06298989  0.54624188     0.02600
C1103       C  0.22417528  0.08524965  0.48520175     0.09400
C1104       C  0.20053961  0.12434392  0.51297138     0.35300
C1105       C  0.25434633  0.04263647  0.55693140     0.38700
C1106       C  0.20734318  0.06811991  0.47409062    -0.04800
C1107       C  0.20530297  0.06800257  0.44984391     0.02300
C1108       C  0.21997718  0.08508566  0.43659634    -0.04400
C1109       C  0.23667544  0.10236295  0.44762006    -0.00700
C1110       C  0.23885723  0.10238673  0.47190624    -0.03200
C1111       C  0.19219716  0.05052710  0.48769216     0.36000
C1112       C  0.25174873  0.11991872  0.43390989     0.39700
C1113       C  0.18804477  0.05031648  0.43853014     0.38800
C1114       C  0.25642238  0.11976379  0.48321812     0.35700
C1115       C  0.25370208  0.04653050  0.50810395     0.36400
C1116       C  0.20261434  0.12268248  0.56179864     0.39600
N1117       N  0.17420883  0.03615592  0.42965740    -0.38400
N1118       N  0.18026479  0.03645009  0.49862442    -0.40000
N1119       N  0.26371982  0.13391168  0.42291907    -0.37800
N1120       N  0.27042528  0.13365521  0.49224323    -0.40100
N1121       N  0.18971619  0.14076901  0.50386533    -0.39900
N1122       N  0.19328264  0.13920803  0.57208020    -0.37500
N1123       N  0.26610209  0.02640940  0.56536427    -0.38600
N1124       N  0.26474837  0.03184440  0.49698682    -0.40300
C1125       C  0.26460012  0.96019259  0.76628216    -0.05200
C1126       C  0.25017354  0.98106922  0.75801962     0.09000
C1127       C  0.23138493  0.99207576  0.77233443    -0.02600
C1128       C  0.22562519  0.98104837  0.79388073    -0.00800
C1129       C  0.23819752  0.95851719  0.80120290    -0.04500
C1130       C  0.25908586  0.94933995  0.78811082     0.02600
C1131       C  0.25279272  0.99029769  0.73360842     0.09400
C1132       C  0.21701436  0.01408943  0.76437238     0.35300
C1133       C  0.27407281  0.92794445  0.79637681     0.38700
C1134       C  0.23936382  0.97768818  0.71580417    -0.04800
C1135       C  0.23704421  0.98915846  0.69391442     0.02300
C1136       C  0.24702132  0.01378249  0.68997983    -0.04400
C1137       C  0.26347496  0.02465851  0.70658455    -0.00700
C1138       C  0.26611910  0.01306883  0.72853670    -0.03200
C1139       C  0.22662839  0.95364138  0.72040323     0.36000
C1140       C  0.27690041  0.04811006  0.70137300     0.39700
C1141       C  0.22507361  0.97530720  0.67514134     0.38800
C1142       C  0.28141511  0.02515001  0.74630501     0.35700
C1143       C  0.28420642  0.94910605  0.75175894     0.36400
C1144       C  0.20706925  0.99339409  0.80873986     0.39600
N1145       N  0.21630183  0.96368598  0.66010285    -0.38400
N1146       N  0.21637909  0.93451135  0.72408796    -0.40000
N1147       N  0.28778967  0.06674616  0.69719886    -0.37800
N1148       N  0.29359160  0.03474696  0.76056014    -0.40100
N1149       N  0.20544775  0.03158011  0.75806499    -0.39900
N1150       N  0.19251229  0.00374319  0.82048531    -0.37500
N1151       N  0.28599973  0.91073268  0.80275689    -0.38600
N1152       N  0.29970530  0.94015405  0.74004760    -0.40300
C1153       C  0.19586312  0.12613903  0.74158809    -0.05200
C1154       C  0.17946450  0.14733375  0.73981498     0.09000
C1155       C  0.17308978  0.15717078  0.71798580    -0.02600
C1156       C  0.18102898  0.14432525  0.69782101    -0.00800
C1157       C  0.19527352  0.12124125  0.69951889    -0.04500
C1158       C  0.20368824  0.11304963  0.72156128     0.02600
C1159       C  0.16468847  0.15547753  0.76048169     0.09400
C1160       C  0.15681615  0.17955393  0.71638749     0.35300
C1161       C  0.21974919  0.09070205  0.72401122     0.38700
C1162       C  0.17261484  0.17615731  0.77435510    -0.04800
C1163       C  0.15877186  0.18251266  0.79446742     0.02300
C1164       C  0.13712539  0.16799169  0.80072459    -0.04400
C1165       C  0.12923583  0.14735835  0.78660593    -0.00700
C1166       C  0.14282043  0.14135631  0.76648107    -0.03200
C1167       C  0.19498633  0.19073241  0.76792422     0.36000
C1168       C  0.10775157  0.13142118  0.79314871     0.39700
C1169       C  0.16640192  0.20432085  0.80833185     0.38800
C1170       C  0.13449534  0.12021238  0.75205538     0.35700
C1171       C  0.20322054  0.11683643  0.76424162     0.36400
C1172       C  0.17261038  0.15400786  0.67560921     0.39600
N1173       N  0.17242787  0.22175672  0.81937346    -0.38400
N1174       N  0.21283762  0.20238749  0.76277259    -0.40000
N1175       N  0.09067778  0.11861589  0.79823567    -0.37800
N1176       N  0.12779300  0.10328982  0.74070546    -0.40100
N1177       N  0.14381946  0.19737830  0.71513621    -0.39900
N1178       N  0.16581468  0.16176998  0.65793599    -0.37500
N1179       N  0.23238230  0.07281236  0.72647783    -0.38600
N1180       N  0.20896438  0.10945162  0.78233952    -0.40300
C1181       C  0.80504927  0.83563632  0.26872537    -0.05200
C1182       C  0.82957155  0.82734620  0.26186847     0.09000
C1183       C  0.84968646  0.82727301  0.27813770    -0.02600
C1184       C  0.84576606  0.83710080  0.30050146    -0.00800
C1185       C  0.82189827  0.84753652  0.30667778    -0.04500
C1186       C  0.80131496  0.84617262  0.29094374     0.02600
C1187       C  0.83540375  0.82206910  0.23696263     0.09400
C1188       C  0.87490849  0.81849094  0.27145533     0.35300
C1189       C  0.77701137  0.85781667  0.29675145     0.38700
C1190       C  0.83729273  0.84270972  0.22135266    -0.04800
C1191       C  0.84736640  0.83879781  0.19908286     0.02300
C1192       C  0.85649694  0.81447663  0.19252618    -0.04400
C1193       C  0.85324580  0.79352032  0.20756958    -0.00700
C1194       C  0.84223823  0.79724757  0.22957603    -0.03200
C1195       C  0.83012397  0.86828293  0.22861440     0.36000
C1196       C  0.86303636  0.76856294  0.20117497     0.39700
C1197       C  0.84859664  0.85988841  0.18290319     0.38800
C1198       C  0.83896384  0.77577990  0.24506626     0.35700
C1199       C  0.78401804  0.83453264  0.25247246     0.36400
C1200       C  0.86668577  0.83736980  0.31689034     0.39600
N1201       N  0.84944562  0.87658332  0.16987078    -0.38400
N1202       N  0.82436731  0.88864074  0.23446213    -0.40000
N1203       N  0.87106128  0.74872211  0.19612334    -0.37800
N1204       N  0.83636164  0.75867330  0.25745946    -0.40100
N1205       N  0.89499497  0.81143601  0.26612864    -0.39900
N1206       N  0.88354525  0.83748020  0.32978150    -0.37500
N1207       N  0.75772348  0.86734241  0.30131474    -0.38600
N1208       N  0.76722595  0.83371492  0.23950120    -0.40300
C1209       C  0.80341451  0.98013028  0.26421422    -0.05200
C1210       C  0.77838198  0.98737032  0.25820730     0.09000
C1211       C  0.75757741  0.97735314  0.27064103    -0.02600
C1212       C  0.76178304  0.96025345  0.28915870    -0.00800
C1213       C  0.78698710  0.95372553  0.29591268    -0.04500
C1214       C  0.80779840  0.96370455  0.28303704     0.02600
C1215       C  0.77447191  0.00571925  0.23868266     0.09400
C1216       C  0.73187255  0.98520473  0.26468501     0.35300
C1217       C  0.83402708  0.95835929  0.28959128     0.38700
C1218       C  0.76941128  0.99648106  0.21628978    -0.04800
C1219       C  0.77096480  0.01300488  0.19709568     0.02300
C1220       C  0.77815529  0.03898761  0.20015321    -0.04400
C1221       C  0.78118379  0.04850976  0.22291358    -0.00700
C1222       C  0.77919786  0.03196491  0.24204719    -0.03200
C1223       C  0.76410990  0.96953137  0.21290676     0.36000
C1224       C  0.78683809  0.07523190  0.22685785     0.39700
C1225       C  0.76713974  0.00245161  0.17415457     0.38800
C1226       C  0.78310560  0.04167609  0.26527257     0.35700
C1227       C  0.82487084  0.99019816  0.25126467     0.36400
C1228       C  0.74009597  0.94911069  0.30093726     0.39600
N1229       N  0.76412155  0.99395089  0.15589249    -0.38400
N1230       N  0.75992045  0.94802611  0.21024087    -0.40000
N1231       N  0.79145528  0.09646446  0.23043184    -0.37800
N1232       N  0.78621856  0.04935518  0.28381234    -0.40100
N1233       N  0.71138963  0.99162790  0.25998030    -0.39900
N1234       N  0.72280169  0.94011471  0.31029036    -0.37500
N1235       N  0.85499883  0.95424771  0.29465150    -0.38600
N1236       N  0.84203803  0.99827506  0.24108470    -0.40300
C1237       C  0.80503267  0.91245358  0.52118848    -0.05200
C1238       C  0.78106245  0.91506173  0.51034904     0.09000
C1239       C  0.75905116  0.91929107  0.52383861    -0.02600
C1240       C  0.76096031  0.92024659  0.54814304    -0.00800
C1241       C  0.78470940  0.91587679  0.55899925    -0.04500
C1242       C  0.80682510  0.91253850  0.54544484     0.02600
C1243       C  0.77920744  0.91236333  0.48470284     0.09400
C1244       C  0.73441998  0.92198177  0.51269228     0.35300
C1245       C  0.83158357  0.90979823  0.55637016     0.38700
C1246       C  0.77898825  0.88781594  0.47465685    -0.04800
C1247       C  0.78014125  0.88498070  0.45047365     0.02300
C1248       C  0.78171342  0.90674236  0.43609708    -0.04400
C1249       C  0.78061233  0.93141616  0.44623030    -0.00700
C1250       C  0.77945113  0.93414120  0.47046683    -0.03200
C1251       C  0.77792747  0.86544452  0.48936076     0.36000
C1252       C  0.78157803  0.95419117  0.43205806     0.39700
C1253       C  0.77908455  0.85960173  0.44040194     0.38800
C1254       C  0.77919097  0.95937848  0.48088291     0.35700
C1255       C  0.82786070  0.90958300  0.50726759     0.36400
C1256       C  0.73841943  0.92506551  0.56199776     0.39600
N1257       N  0.77815166  0.83938243  0.43233206    -0.38400
N1258       N  0.77711174  0.84768108  0.50119072    -0.40000
N1259       N  0.78215888  0.97278909  0.42131090    -0.37800
N1260       N  0.77894421  0.97948881  0.48921626    -0.40100
N1261       N  0.71476032  0.92402781  0.50376358    -0.39900
N1262       N  0.72048063  0.92891026  0.57310976    -0.37500
N1263       N  0.85153896  0.90777000  0.56473187    -0.38600
N1264       N  0.84602629  0.90739671  0.49610031    -0.40300
C1265       C  0.83671313  0.82796773  0.77444889    -0.05200
C1266       C  0.84578305  0.81805986  0.75336463     0.09000
C1267       C  0.86522573  0.79949403  0.75337488    -0.02600
C1268       C  0.87789016  0.79331579  0.77407619    -0.00800
C1269       C  0.87042892  0.80494428  0.79509799    -0.04500
C1270       C  0.84866717  0.82108717  0.79536242     0.02600
C1271       C  0.83942769  0.83136909  0.73135962     0.09400
C1272       C  0.87321798  0.78802051  0.73172493     0.35300
C1273       C  0.83969694  0.83236315  0.81678837     0.38700
C1274       C  0.85639544  0.85020740  0.72329362    -0.04800
C1275       C  0.85102067  0.86346981  0.70284966     0.02300
C1276       C  0.82815103  0.85863906  0.69062596    -0.04400
C1277       C  0.81136793  0.83939029  0.69836978    -0.00700
C1278       C  0.81706749  0.82569122  0.71876328    -0.03200
C1279       C  0.87921830  0.85638477  0.73644367     0.36000
C1280       C  0.78789777  0.83437263  0.68589840     0.39700
C1281       C  0.86924875  0.88212876  0.69442980     0.38800
C1282       C  0.79982888  0.80615516  0.72706925     0.35700
C1283       C  0.81629506  0.84670356  0.77439070     0.36400
C1284       C  0.89909276  0.77557947  0.77341675     0.39600
N1285       N  0.88390725  0.89698179  0.68795551    -0.38400
N1286       N  0.89732113  0.86127919  0.74701813    -0.40000
N1287       N  0.76916874  0.83033790  0.67593865    -0.37800
N1288       N  0.78606908  0.79057516  0.73376803    -0.40100
N1289       N  0.87949170  0.77887640  0.71443334    -0.39900
N1290       N  0.91612669  0.76157458  0.77246900    -0.37500
N1291       N  0.83254764  0.84137500  0.83386170    -0.38600
N1292       N  0.80005761  0.86170203  0.77432243    -0.40300
C1293       C  0.78627833  0.96800669  0.73894097    -0.05200
C1294       C  0.76681425  0.98653792  0.73956267     0.09000
C1295       C  0.75037087  0.98936378  0.72043399    -0.02600
C1296       C  0.75463346  0.97501745  0.70003993    -0.00800
C1297       C  0.77566316  0.95804865  0.69867469    -0.04500
C1298       C  0.79045521  0.95356939  0.71880626     0.02600
C1299       C  0.76586854  0.00446438  0.75969537     0.09400
C1300       C  0.72973230  0.00776311  0.72150587     0.35300
C1301       C  0.81016739  0.93410582  0.71922210     0.38700
C1302       C  0.77950957  0.02761214  0.75853699    -0.04800
C1303       C  0.78500038  0.04139435  0.77887373     0.02300
C1304       C  0.77705524  0.03198715  0.80058881    -0.04400
C1305       C  0.76143538  0.00998900  0.80145688    -0.00700
C1306       C  0.75581697  0.99631222  0.78101737    -0.03200
C1307       C  0.78917319  0.03645359  0.73647253     0.36000
C1308       C  0.75259654  0.00036724  0.82348180     0.39700
C1309       C  0.79898693  0.06518151  0.77720912     0.38800
C1310       C  0.74090372  0.97303022  0.78197915     0.35700
C1311       C  0.80298124  0.96473900  0.75877847     0.36400
C1312       C  0.73801963  0.97860914  0.68028991     0.39600
N1313       N  0.81000996  0.08415833  0.77507860    -0.38400
N1314       N  0.79685821  0.04342836  0.71885773    -0.40000
N1315       N  0.74550345  0.99262673  0.84102959    -0.37800
N1316       N  0.72901061  0.95443663  0.78266529    -0.40100
N1317       N  0.71328045  0.02248783  0.72237260    -0.39900
N1318       N  0.72464547  0.98134400  0.66456813    -0.37500
N1319       N  0.82602709  0.91879628  0.72053154    -0.38600
N1320       N  0.81630603  0.96226713  0.77456904    -0.40300
C1321       C  0.00410679  0.75561237  0.27267960    -0.05200
C1322       C  0.01567409  0.75941344  0.25102158     0.09000
C1323       C  0.04226400  0.76301410  0.24965973    -0.02600
C1324       C  0.05681987  0.76560318  0.27002768    -0.00800
C1325       C  0.04478084  0.76480528  0.29186926    -0.04500
C1326       C  0.01858507  0.75812642  0.29309047     0.02600
C1327       C  0.99925295  0.76435695  0.23040972     0.09400
C1328       C  0.05435144  0.76532998  0.22724765     0.35300
C1329       C  0.00587076  0.75559265  0.31521267     0.38700
C1330       C  0.99229155  0.78971976  0.22539657    -0.04800
C1331       C  0.97539200  0.79503409  0.20715339     0.02300
C1332       C  0.96513852  0.77484840  0.19356102    -0.04400
C1333       C  0.97272397  0.74938434  0.19834170    -0.00700
C1334       C  0.98969520  0.74420757  0.21676112    -0.03200
C1335       C  0.00272293  0.81052880  0.23911690     0.36000
C1336       C  0.96273390  0.72835414  0.18474089     0.39700
C1337       C  0.96944602  0.82155774  0.20216182     0.38800
C1338       C  0.99738843  0.71820430  0.22176438     0.35700
C1339       C  0.97687465  0.75082502  0.27391417     0.36400
C1340       C  0.08415331  0.76921522  0.26845563     0.39600
N1341       N  0.96480389  0.84278099  0.19842349    -0.38400
N1342       N  0.01114894  0.82708183  0.24996019    -0.40000
N1343       N  0.95485957  0.71154045  0.17388655    -0.37800
N1344       N  0.00360692  0.69745892  0.22578073    -0.40100
N1345       N  0.06396477  0.76715768  0.20935600    -0.39900
N1346       N  0.10599611  0.77193043  0.26711623    -0.37500
N1347       N  0.99567337  0.75348485  0.33281246    -0.38600
N1348       N  0.95514460  0.74703838  0.27478746    -0.40300
C1349       C  0.19885377  0.83482119  0.22444126    -0.05200
C1350       C  0.17441063  0.82713148  0.23181003     0.09000
C1351       C  0.15329053  0.82988286  0.21687598    -0.02600
C1352       C  0.15626871  0.84202084  0.19539153    -0.00800
C1353       C  0.18029044  0.85178073  0.18891599    -0.04500
C1354       C  0.20179423  0.84732853  0.20307051     0.02600
C1355       C  0.16988153  0.82097729  0.25660496     0.09400
C1356       C  0.12817350  0.82158365  0.22418897     0.35300
C1357       C  0.22655654  0.85724910  0.19647510     0.38700
C1358       C  0.16514083  0.84120568  0.27208439    -0.04800
C1359       C  0.15714524  0.83598392  0.29470199     0.02300
C1360       C  0.15226549  0.81059556  0.30159285    -0.04400
C1361       C  0.16003948  0.79030493  0.28710851    -0.00700
C1362       C  0.16870865  0.79552021  0.26447192    -0.03200
C1363       C  0.16694211  0.86746756  0.26423860     0.36000
C1364       C  0.15831803  0.76419181  0.29509960     0.39700
C1365       C  0.15416694  0.85681040  0.31099675     0.38800
C1366       C  0.17530688  0.77483856  0.24893086     0.35700
C1367       C  0.22066428  0.83106135  0.23947114     0.36400
C1368       C  0.13451455  0.84473682  0.18006701     0.39600
N1369       N  0.15255129  0.87362558  0.32389064    -0.38400
N1370       N  0.16815173  0.88832055  0.25776267    -0.40000
N1371       N  0.15737395  0.74329410  0.30146579    -0.37800
N1372       N  0.18062359  0.75837425  0.23646467    -0.40100
N1373       N  0.10803046  0.81514731  0.22987563    -0.39900
N1374       N  0.11711103  0.84666867  0.16788569    -0.37500
N1375       N  0.24628752  0.86522117  0.19121569    -0.38600
N1376       N  0.23804722  0.82798177  0.25148785    -0.40300
C1377       C  0.96858236  0.83938024  0.35357841    -0.05200
C1378       C  0.96030549  0.84211463  0.37660330     0.09000
C1379       C  0.97628689  0.83394908  0.39477193    -0.02600
C1380       C  0.00043583  0.82301968  0.38995956    -0.00800
C1381       C  0.00875277  0.82008040  0.36683770    -0.04500
C1382       C  0.99255859  0.82838674  0.34867240     0.02600
C1383       C  0.93425178  0.85287491  0.38134357     0.09400
C1384       C  0.96785456  0.83701162  0.41843922     0.35300
C1385       C  0.00012923  0.82512721  0.32473595     0.38700
C1386       C  0.91307435  0.83644886  0.38250407    -0.04800
C1387       C  0.88805421  0.84650246  0.38323902     0.02300
C1388       C  0.88383993  0.87340622  0.38166576    -0.04400
C1389       C  0.90546783  0.88977129  0.38286739    -0.00700
C1390       C  0.93045076  0.87946939  0.38269600    -0.03200
C1391       C  0.91708318  0.80901383  0.38169114     0.36000
C1392       C  0.90239457  0.91726765  0.38409283     0.39700
C1393       C  0.86694962  0.82860064  0.38449218     0.38800
C1394       C  0.95243879  0.89626554  0.38319086     0.35700
C1395       C  0.95227622  0.84787243  0.33481991     0.36400
C1396       C  0.01699780  0.81567112  0.40888767     0.39600
N1397       N  0.85025894  0.81418569  0.38545491    -0.38400
N1398       N  0.92031004  0.78715341  0.38090495    -0.40000
N1399       N  0.90019096  0.93924928  0.38502887    -0.37800
N1400       N  0.97002637  0.90959514  0.38365594    -0.40100
N1401       N  0.96107006  0.83951459  0.43731185    -0.39900
N1402       N  0.03017764  0.80984996  0.42403761    -0.37500
N1403       N  0.00615857  0.82265144  0.30564958    -0.38600
N1404       N  0.93939792  0.85470435  0.31980516    -0.40300
C1405       C  0.14366530  0.90248598  0.39728917    -0.05200
C1406       C  0.13856800  0.92301246  0.38221454     0.09000
C1407       C  0.12259066  0.91890533  0.36287896    -0.02600
C1408       C  0.11202791  0.89454207  0.35855314    -0.00800
C1409       C  0.11880262  0.87338637  0.37259360    -0.04500
C1410       C  0.13497342  0.87761012  0.39192083     0.02600
C1411       C  0.15172474  0.94837625  0.38526487     0.09400
C1412       C  0.11801372  0.93954075  0.34666232     0.35300
C1413       C  0.14344839  0.85641394  0.40609157     0.38700
C1414       C  0.17833295  0.95040578  0.38154478    -0.04800
C1415       C  0.19004104  0.97463649  0.38024233     0.02300
C1416       C  0.17504334  0.99705391  0.38141980    -0.04400
C1417       C  0.14877991  0.99506478  0.38663896    -0.00700
C1418       C  0.13736591  0.97081826  0.38929259    -0.03200
C1419       C  0.19348924  0.92761192  0.37755957     0.36000
C1420       C  0.13332801  0.01797500  0.38866186     0.39700
C1421       C  0.21715075  0.97637431  0.37540195     0.38800
C1422       C  0.11060746  0.96889838  0.39538802     0.35700
C1423       C  0.15821710  0.90696181  0.41823320     0.36400
C1424       C  0.09598761  0.89107985  0.33832730     0.39600
N1425       N  0.23874881  0.97777098  0.37147599    -0.38400
N1426       N  0.20558951  0.90942079  0.37448027    -0.40000
N1427       N  0.12098407  0.03624401  0.39018880    -0.37800
N1428       N  0.08926062  0.96734812  0.40026625    -0.40100
N1429       N  0.11441462  0.95602097  0.33377270    -0.39900
N1430       N  0.08333809  0.88845751  0.32210103    -0.37500
N1431       N  0.15054960  0.83958307  0.41732932    -0.38600
N1432       N  0.16977366  0.91055536  0.43496347    -0.40300
C1433       C  0.92894551  0.88039199  0.62270066    -0.05200
C1434       C  0.93097960  0.85791761  0.60940845     0.09000
C1435       C  0.90947035  0.84875222  0.59736041    -0.02600
C1436       C  0.88542627  0.86051367  0.60033558    -0.00800
C1437       C  0.88293545  0.88249655  0.61467615    -0.04500
C1438       C  0.90538377  0.89324783  0.62449289     0.02600
C1439       C  0.95533588  0.84290383  0.60953563     0.09400
C1440       C  0.91199897  0.82648940  0.58254666     0.22500
C1441       C  0.90458488  0.91760967  0.63650695     0.38700
C1442       C  0.95676473  0.81987881  0.62212257    -0.04800
C1443       C  0.98000468  0.80641985  0.62359990     0.02300
C1444       C  0.00247388  0.81691985  0.61395032    -0.04400
C1445       C  0.00064456  0.83901301  0.60006853    -0.00700
C1446       C  0.97713307  0.85194452  0.59783720    -0.03200
C1447       C  0.93459285  0.81075810  0.63463219     0.36000
C1448       C  0.02271326  0.84771841  0.58723784     0.39700
C1449       C  0.98069018  0.78212679  0.63562276     0.38800
C1450       C  0.97545854  0.87490906  0.58396654     0.35700
C1451       C  0.95088769  0.88957594  0.63557987     0.36400
C1452       C  0.86335946  0.84893370  0.58938246     0.39600
N1453       N  0.98107531  0.76265969  0.64505176    -0.38400
N1454       N  0.91693151  0.80363363  0.64470864    -0.40000
N1455       N  0.04026903  0.85431621  0.57672672    -0.37800
N1456       N  0.97412718  0.89332150  0.57301358    -0.40100
N1457       N  0.91407470  0.80871445  0.57078782    -0.39900
N1458       N  0.84585260  0.83952553  0.58062697    -0.37500
N1459       N  0.90403846  0.93705636  0.64603643    -0.38600
N1460       N  0.96835189  0.89675257  0.64597121    -0.40300
C1461       C  0.17003667  0.95304010  0.59697947    -0.05200
C1462       C  0.15561067  0.94119916  0.61459500     0.09000
C1463       C  0.15292471  0.95375207  0.63604811    -0.02600
C1464       C  0.16358200  0.97818525  0.63962665    -0.00800
C1465       C  0.17848704  0.98996794  0.62220660    -0.04500
C1466       C  0.18188784  0.97705229  0.60093701     0.02600
C1467       C  0.14331668  0.91535699  0.61122938     0.09400
C1468       C  0.13978363  0.94102784  0.65484494     0.35300
C1469       C  0.19704710  0.98871030  0.58290824     0.38700
C1470       C  0.15813741  0.89284321  0.61218772    -0.04800
C1471       C  0.14622238  0.86858687  0.61325371     0.02300
C1472       C  0.11923732  0.86658997  0.61449039    -0.04400
C1473       C  0.10447837  0.88921114  0.61316541    -0.00700
C1474       C  0.11644408  0.91325975  0.61056652    -0.03200
C1475       C  0.18571198  0.89474429  0.61352027     0.36000
C1476       C  0.07698825  0.88808006  0.61561884     0.39700
C1477       C  0.16200170  0.84588508  0.61505492     0.38800
C1478       C  0.10108662  0.93613699  0.60794369     0.35700
C1479       C  0.17246432  0.94059617  0.57472172     0.36400
C1480       C  0.16022667  0.99045287  0.66192898     0.39600
N1481       N  0.17470332  0.82786045  0.61651858    -0.38400
N1482       N  0.20770043  0.89632287  0.61467374    -0.40000
N1483       N  0.05509399  0.88756381  0.61810288    -0.37800
N1484       N  0.08890712  0.95441772  0.60571452    -0.40100
N1485       N  0.12942607  0.93074215  0.66980345    -0.39900
N1486       N  0.15748535  0.00001686  0.67978795    -0.37500
N1487       N  0.20918576  0.99795937  0.56850442    -0.38600
N1488       N  0.17436993  0.93067378  0.55693374    -0.40300
C1489       C  0.06596505  0.78029839  0.51856862    -0.05200
C1490       C  0.08862534  0.77446534  0.50664082     0.09000
C1491       C  0.11023541  0.76604716  0.51896099    -0.02600
C1492       C  0.10929345  0.76359639  0.54320156    -0.00800
C1493       C  0.08692553  0.77058151  0.55550489    -0.04500
C1494       C  0.06503847  0.77849253  0.54284786     0.02600
C1495       C  0.08922955  0.77589156  0.48086444     0.09400
C1496       C  0.13352344  0.75997462  0.50658801     0.35300
C1497       C  0.04141050  0.78503757  0.55447734     0.38700
C1498       C  0.09270915  0.79952175  0.46968720    -0.04800
C1499       C  0.09258317  0.80079452  0.44536062     0.02300
C1500       C  0.09041377  0.77821468  0.43200115    -0.04400
C1501       C  0.08538209  0.75476267  0.44335179    -0.00700
C1502       C  0.08489463  0.75368156  0.46766593    -0.03200
C1503       C  0.09604772  0.82258302  0.48328467     0.36000
C1504       C  0.08029367  0.73166853  0.43024693     0.39700
C1505       C  0.09183723  0.82556404  0.43422582     0.38800
C1506       C  0.07959792  0.72971691  0.47925136     0.35700
C1507       C  0.04350949  0.78814664  0.50568671     0.36400
C1508       C  0.13106824  0.75275635  0.55522596     0.39600
N1509       N  0.09031991  0.84536964  0.42550118    -0.38400
N1510       N  0.09870635  0.84097344  0.49414279    -0.40000
N1511       N  0.07600723  0.71324996  0.41986137    -0.37800
N1512       N  0.07530262  0.71068855  0.48859452    -0.40100
N1513       N  0.15211096  0.75522041  0.49670321    -0.39900
N1514       N  0.14833249  0.74394325  0.56482709    -0.37500
N1515       N  0.02233289  0.79001202  0.56346778    -0.38600
N1516       N  0.02567230  0.79438398  0.49532923    -0.40300
C1517       C  0.02893563  0.73398845  0.72619802    -0.05200
C1518       C  0.00951734  0.74965854  0.73535191     0.09000
C1519       C  0.99978707  0.76991855  0.72199801    -0.02600
C1520       C  0.01078782  0.77592313  0.70050003    -0.00800
C1521       C  0.03112021  0.76091934  0.69145800    -0.04500
C1522       C  0.03934406  0.73920689  0.70411918     0.02600
C1523       C  0.00152400  0.74776506  0.76016191     0.09400
C1524       C  0.97906560  0.78545276  0.73104904     0.35300
C1525       C  0.05948918  0.72297442  0.69519993     0.38700
C1526       C  0.01195123  0.76521382  0.77614044    -0.04800
C1527       C  0.00004065  0.76916164  0.79761559     0.02300
C1528       C  0.97764833  0.75548706  0.80345721    -0.04400
C1529       C  0.96946050  0.73541244  0.78885903    -0.00700
C1530       C  0.98106961  0.73193698  0.76697689    -0.03200
C1531       C  0.03394086  0.78048611  0.76972044     0.36000
C1532       C  0.94804275  0.71959306  0.79556794     0.39700
C1533       C  0.01041208  0.78814127  0.81331145     0.38800
C1534       C  0.97102896  0.71324829  0.75090014     0.35700
C1535       C  0.03901934  0.71327621  0.74005242     0.36400
C1536       C  0.00140594  0.79823545  0.68828047     0.39600
N1537       N  0.01878809  0.80346289  0.82556825    -0.38400
N1538       N  0.05139218  0.79270432  0.76451156    -0.40000
N1539       N  0.93090369  0.70703878  0.80097389    -0.37800
N1540       N  0.96302124  0.69834179  0.73802097    -0.40100
N1541       N  0.96259235  0.79778077  0.73835240    -0.39900
N1542       N  0.99394931  0.81631223  0.67897529    -0.37500
N1543       N  0.07544505  0.70987003  0.68806353    -0.38600
N1544       N  0.04710804  0.69682855  0.75120224    -0.40300
C1545       C  0.13887378  0.83647712  0.72692741    -0.05200
C1546       C  0.16194106  0.82360862  0.73141144     0.09000
C1547       C  0.17200798  0.80644017  0.71504506    -0.02600
C1548       C  0.15814660  0.80088785  0.69473232    -0.00800
C1549       C  0.13412065  0.81263535  0.69083147    -0.04500
C1550       C  0.12516115  0.83131402  0.70666227     0.02600
C1551       C  0.17568314  0.82952578  0.75323421     0.09400
C1552       C  0.19675811  0.79485170  0.71904342     0.35300
C1553       C  0.10248899  0.84638136  0.70176705     0.38700
C1554       C  0.16639732  0.81966181  0.77422876    -0.04800
C1555       C  0.17312981  0.83140019  0.79527943     0.02300
C1556       C  0.18933185  0.85303755  0.79526605    -0.04400
C1557       C  0.20079440  0.86087192  0.77431838    -0.00700
C1558       C  0.19393261  0.84916581  0.75336587    -0.03200
C1559       C  0.14822727  0.79877195  0.77388206     0.36000
C1560       C  0.21882787  0.88175090  0.77390831     0.39700
C1561       C  0.16141474  0.82259267  0.81650905     0.38800
C1562       C  0.20412065  0.85865057  0.73171264     0.35700
C1563       C  0.12948055  0.85555277  0.74310408     0.36400
C1564       C  0.16876678  0.78313618  0.67805632     0.39600
N1565       N  0.15201946  0.81560392  0.83342478    -0.38400
N1566       N  0.13365190  0.78218540  0.77351523    -0.40000
N1567       N  0.23310154  0.89849859  0.77289040    -0.37800
N1568       N  0.21223997  0.86622944  0.71446976    -0.40100
N1569       N  0.21663592  0.78584375  0.72216689    -0.39900
N1570       N  0.17746922  0.76910786  0.66474589    -0.37500
N1571       N  0.08451679  0.85853833  0.69795636    -0.38600
N1572       N  0.12207064  0.87076691  0.75597607    -0.40300
C1573       C  0.84872493  0.14461688  0.27350087    -0.05200
C1574       C  0.83865704  0.16614771  0.26209208     0.09000
C1575       C  0.83677498  0.18956870  0.27398947    -0.02600
C1576       C  0.84658519  0.19191977  0.29666436    -0.00800
C1577       C  0.85996759  0.17126876  0.30693205    -0.04500
C1578       C  0.85939015  0.14709302  0.29573791     0.02600
C1579       C  0.83194548  0.16409606  0.23701896     0.09400
C1580       C  0.82559992  0.21146920  0.26251035     0.35300
C1581       C  0.86938771  0.12448025  0.30710319     0.38700
C1582       C  0.80672178  0.15871805  0.22992172    -0.04800
C1583       C  0.80187413  0.15072532  0.20699104     0.02300
C1584       C  0.82234659  0.14766212  0.19143550    -0.04400
C1585       C  0.84681361  0.15649677  0.19767659    -0.00700
C1586       C  0.85168549  0.16448727  0.22048207    -0.03200
C1587       C  0.78615278  0.15979075  0.24657755     0.36000
C1588       C  0.86699601  0.15716117  0.18060009     0.39700
C1589       C  0.77623674  0.14385192  0.19987424     0.38800
C1590       C  0.87732564  0.17171703  0.22733410     0.35700
C1591       C  0.84877895  0.11994920  0.26196881     0.36400
C1592       C  0.84247677  0.21549038  0.30926895     0.39600
N1593       N  0.75582608  0.13833036  0.19408807    -0.38400
N1594       N  0.76974476  0.16066740  0.25990389    -0.40000
N1595       N  0.88305402  0.15826233  0.16695385    -0.37800
N1596       N  0.89776226  0.17741509  0.23289665    -0.40100
N1597       N  0.81676789  0.22895371  0.25326809    -0.39900
N1598       N  0.83839148  0.23407920  0.31945296    -0.37500
N1599       N  0.87735003  0.10642034  0.31609617    -0.38600
N1600       N  0.84881622  0.10029158  0.25279385    -0.40300
C1601       C  0.98671837  0.24114332  0.27448617    -0.05200
C1602       C  0.99598843  0.22116132  0.26044799     0.09000
C1603       C  0.99219775  0.19559924  0.26718697    -0.02600
C1604       C  0.97880859  0.18992758  0.28759363    -0.00800
C1605       C  0.96833696  0.20986004  0.30129110    -0.04500
C1606       C  0.97270604  0.23556937  0.29473589     0.02600
C1607       C  0.00945795  0.22637715  0.23816430     0.09400
C1608       C  0.00231843  0.17502401  0.25302194     0.35300
C1609       C  0.96230010  0.25634883  0.30839308     0.38700
C1610       C  0.03621848  0.22904617  0.23777440    -0.04800
C1611       C  0.04951264  0.22744445  0.21664168     0.02300
C1612       C  0.03621320  0.22227268  0.19590572    -0.04400
C1613       C  0.00925763  0.22192435  0.19611348    -0.00700
C1614       C  0.99592864  0.22428008  0.21717953    -0.03200
C1615       C  0.05013947  0.23186147  0.25927322     0.36000
C1616       C  0.99513650  0.21700845  0.17508916     0.39700
C1617       C  0.07698011  0.23059524  0.21627321     0.38800
C1618       C  0.96828224  0.22284735  0.21752497     0.35700
C1619       C  0.99171139  0.26740576  0.26807010     0.36400
C1620       C  0.97683753  0.16344321  0.29479908     0.39600
N1621       N  0.09888191  0.23327752  0.21605276    -0.38400
N1622       N  0.06122182  0.23402261  0.27645891    -0.40000
N1623       N  0.98331397  0.21299038  0.15861875    -0.37800
N1624       N  0.94623578  0.22172666  0.21787123    -0.40100
N1625       N  0.01039961  0.15872901  0.24164125    -0.39900
N1626       N  0.97539996  0.14231009  0.30048024    -0.37500
N1627       N  0.95402894  0.27294983  0.31929426    -0.38600
N1628       N  0.99588632  0.28836967  0.26304481    -0.40300
C1629       C  0.04530590  0.16884056  0.38085442    -0.05200
C1630       C  0.04842511  0.14235572  0.38446484     0.09000
C1631       C  0.02678235  0.12719386  0.38909411    -0.02600
C1632       C  0.00206469  0.13800473  0.38807734    -0.00800
C1633       C  0.99878971  0.16395366  0.38202874    -0.04500
C1634       C  0.02059839  0.17964243  0.37965520     0.02600
C1635       C  0.07414099  0.13016335  0.38098615     0.09400
C1636       C  0.02997842  0.10030364  0.39425704     0.35300
C1637       C  0.01770369  0.20664061  0.37471407     0.38700
C1638       C  0.09143493  0.12722437  0.39952195    -0.04800
C1639       C  0.11611515  0.11702188  0.39560859     0.02300
C1640       C  0.12344307  0.10923757  0.37320061    -0.04400
C1641       C  0.10593741  0.11182839  0.35475169    -0.00700
C1642       C  0.08147050  0.12228489  0.35862373    -0.03200
C1643       C  0.08374832  0.13472915  0.42257575     0.36000
C1644       C  0.11346630  0.10470849  0.33150716     0.39700
C1645       C  0.13390182  0.11428539  0.41463475     0.38800
C1646       C  0.06384174  0.12532455  0.33947768     0.35700
C1647       C  0.06760099  0.18476858  0.37746605     0.36400
C1648       C  0.97996934  0.12257676  0.39366566     0.39600
N1649       N  0.14815962  0.11209036  0.42977786    -0.38400
N1650       N  0.07748369  0.14064342  0.44097717    -0.40000
N1651       N  0.11948454  0.09908492  0.31296378    -0.37800
N1652       N  0.04973960  0.12781010  0.32425332    -0.40100
N1653       N  0.03257946  0.07884906  0.39842509    -0.39900
N1654       N  0.96236693  0.11039325  0.39850194    -0.37500
N1655       N  0.01537957  0.22820368  0.37086892    -0.38600
N1656       N  0.08544457  0.19742569  0.37482625    -0.40300
C1657       C  0.82913500  0.03312947  0.36736357    -0.05200
C1658       C  0.84774957  0.03651231  0.38475057     0.09000
C1659       C  0.85459712  0.01570384  0.39897570    -0.02600
C1660       C  0.84389145  0.99132947  0.39497246    -0.00800
C1661       C  0.82659873  0.98769798  0.37660012    -0.04500
C1662       C  0.81861686  0.00878689  0.36328592     0.02600
C1663       C  0.86167070  0.06144585  0.38630128     0.09400
C1664       C  0.87313093  0.01929950  0.41727566     0.35300
C1665       C  0.80003215  0.00536958  0.34495362     0.38700
C1666       C  0.84983659  0.08305346  0.39606016    -0.04800
C1667       C  0.86094319  0.10749674  0.39364666     0.02300
C1668       C  0.88438377  0.11058237  0.38149792    -0.04400
C1669       C  0.89676637  0.08832242  0.37277984    -0.00700
C1670       C  0.88546916  0.06403094  0.37532016    -0.03200
C1671       C  0.82565590  0.08012484  0.40795069     0.36000
C1672       C  0.92018087  0.09008431  0.35952060     0.39700
C1673       C  0.84748942  0.12933139  0.40320222     0.38800
C1674       C  0.89775374  0.04161343  0.36552943     0.35700
C1675       C  0.82151679  0.05458212  0.35307774     0.36400
C1676       C  0.85063271  0.96993415  0.40962393     0.39600
N1677       N  0.83655014  0.14664497  0.41076773    -0.38400
N1678       N  0.80635190  0.07776641  0.41738196    -0.40000
N1679       N  0.93874460  0.09125694  0.34877216    -0.37800
N1680       N  0.90747914  0.02368861  0.35778994    -0.40100
N1681       N  0.88799393  0.02218262  0.43183868    -0.39900
N1682       N  0.85574148  0.95280663  0.42135928    -0.37500
N1683       N  0.78513926  0.00295844  0.33035062    -0.38600
N1684       N  0.81543902  0.07175670  0.34178134    -0.40300
C1685       C  0.03691656  0.12936106  0.61374342    -0.05200
C1686       C  0.05923831  0.14318164  0.61901303     0.09000
C1687       C  0.05756686  0.16958575  0.62361907    -0.02600
C1688       C  0.03352171  0.18174936  0.62479033    -0.00800
C1689       C  0.01078715  0.16736919  0.62167465    -0.04500
C1690       C  0.01284033  0.14145672  0.61465737     0.02600
C1691       C  0.08427701  0.12958367  0.62164264     0.09400
C1692       C  0.08067471  0.18397059  0.62826446     0.35300
C1693       C  0.99020848  0.12714201  0.60821819     0.38700
C1694       C  0.09958472  0.12396635  0.60228231    -0.04800
C1695       C  0.12331284  0.11140944  0.60509226     0.02300
C1696       C  0.13240089  0.10523195  0.62745584    -0.04400
C1697       C  0.11671953  0.11082776  0.64682491    -0.00700
C1698       C  0.09266194  0.12241975  0.64382235    -0.03200
C1699       C  0.09080634  0.13115000  0.57945527     0.36000
C1700       C  0.12544011  0.10552300  0.67011687     0.39700
C1701       C  0.13763733  0.10379874  0.58483254     0.38800
C1702       C  0.07636146  0.12689113  0.66367616     0.35700
C1703       C  0.03870183  0.10234622  0.60838350     0.36400
C1704       C  0.03247517  0.20869102  0.63066605     0.39600
N1705       N  0.14871082  0.09743245  0.56853635    -0.38400
N1706       N  0.08372090  0.13693882  0.56127343    -0.40000
N1707       N  0.13238380  0.10124633  0.68867623    -0.37800
N1708       N  0.06340093  0.13019448  0.67956329    -0.40100
N1709       N  0.09911835  0.19537842  0.63204957    -0.39900
N1710       N  0.03171402  0.23017826  0.63537187    -0.37500
N1711       N  0.97214568  0.11581140  0.60298169    -0.38600
N1712       N  0.04021053  0.08077676  0.60418434    -0.40300
C1713       C  0.88881280  0.07098206  0.63956031    -0.05200
C1714       C  0.87526146  0.06605299  0.61904687     0.09000
C1715       C  0.87565854  0.08416287  0.60110583    -0.02600
C1716       C  0.88852412  0.10771517  0.60407898    -0.00800
C1717       C  0.90005409  0.11396778  0.62560397    -0.04500
C1718       C  0.90075283  0.09481953  0.64310751     0.02600
C1719       C  0.85974905  0.04205547  0.61712271     0.09400
C1720       C  0.86242536  0.07862559  0.57968476     0.35300
C1721       C  0.91267550  0.09950111  0.66536187     0.38700
C1722       C  0.83502301  0.04124358  0.62668286    -0.04800
C1723       C  0.82189525  0.01778261  0.62862631     0.02300
C1724       C  0.83359593  0.99473976  0.62120618    -0.04400
C1725       C  0.85763003  0.99603251  0.60996541    -0.00700
C1726       C  0.87062993  0.01956929  0.60804937    -0.03200
C1727       C  0.82356007  0.06455357  0.63547258     0.36000
C1728       C  0.86917823  0.97315584  0.60036037     0.39700
C1729       C  0.79696121  0.01746418  0.63946217     0.38800
C1730       C  0.89565388  0.02059575  0.59743866     0.35700
C1731       C  0.89004369  0.05143249  0.65729890     0.36400
C1732       C  0.89019794  0.12513100  0.58469017     0.39600
N1733       N  0.77702591  0.01733924  0.64803229    -0.38400
N1734       N  0.81447706  0.08315244  0.64251449    -0.40000
N1735       N  0.87843728  0.95493713  0.59271323    -0.37800
N1736       N  0.91561208  0.02147748  0.58895484    -0.40100
N1737       N  0.85180471  0.07417707  0.56261832    -0.39900
N1738       N  0.89170617  0.13893944  0.56917260    -0.37500
N1739       N  0.92204692  0.10307108  0.68318713    -0.38600
N1740       N  0.89112237  0.03574595  0.67131356    -0.40300
C1741       C  0.94069079  0.20252097  0.52467091    -0.05200
C1742       C  0.91927460  0.21410560  0.51423675     0.09000
C1743       C  0.90060788  0.22605613  0.52802886    -0.02600
C1744       C  0.90317202  0.22614159  0.55223933    -0.00800
C1745       C  0.92404752  0.21357597  0.56278644    -0.04500
C1746       C  0.94304234  0.20211450  0.54890374     0.02600
C1747       C  0.91622449  0.21300001  0.48862855     0.09400
C1748       C  0.87852087  0.23779914  0.51729597     0.35300
C1749       C  0.96446896  0.18899557  0.55946859     0.38700
C1750       C  0.90581187  0.19104986  0.47825975    -0.04800
C1751       C  0.90510448  0.18870851  0.45401819     0.02300
C1752       C  0.91388631  0.20893980  0.43971946    -0.04400
C1753       C  0.92462856  0.23096618  0.45048986    -0.00700
C1754       C  0.92545094  0.23298019  0.47478423    -0.03200
C1755       C  0.89610562  0.17063373  0.49273264     0.36000
C1756       C  0.93539492  0.25161470  0.43696192     0.39700
C1757       C  0.89719935  0.16447385  0.44419888     0.38800
C1758       C  0.93595304  0.25563963  0.48570754     0.35700
C1759       C  0.96002345  0.19055535  0.51035440     0.36400
C1760       C  0.88466468  0.23973312  0.56630496     0.39600
N1761       N  0.89128952  0.14484830  0.43671329    -0.38400
N1762       N  0.88832846  0.15445782  0.50434102    -0.40000
N1763       N  0.94414810  0.26810572  0.42631559    -0.37800
N1764       N  0.94420073  0.27371669  0.49448768    -0.40100
N1765       N  0.86081522  0.24707429  0.50878014    -0.39900
N1766       N  0.87009377  0.25063719  0.57764961    -0.37500
N1767       N  0.98158844  0.17850751  0.56781529    -0.38600
N1768       N  0.97534073  0.18102933  0.49881404    -0.40300
C1769       C  0.98900687  0.25254684  0.73171013    -0.05200
C1770       C  0.00786018  0.23561485  0.74007109     0.09000
C1771       C  0.01702111  0.21594672  0.72563642    -0.02600
C1772       C  0.00589491  0.21178926  0.70387629    -0.00800
C1773       C  0.98504270  0.22696205  0.69637115    -0.04500
C1774       C  0.97785427  0.24848084  0.70970277     0.02600
C1775       C  0.01691976  0.23650340  0.76460035     0.09400
C1776       C  0.03716598  0.19904029  0.73368775     0.35300
C1777       C  0.95852499  0.26593118  0.70124866     0.38700
C1778       C  0.00199395  0.22493476  0.78197183    -0.04800
C1779       C  0.01301641  0.21880452  0.80347787     0.02300
C1780       C  0.03908780  0.22381075  0.80756150    -0.04400
C1781       C  0.05356910  0.23689971  0.79081232    -0.00700
C1782       C  0.04229570  0.24377277  0.76957285    -0.03200
C1783       C  0.97578218  0.21776568  0.77715289     0.36000
C1784       C  0.08066983  0.24093043  0.79446419     0.39700
C1785       C  0.99781307  0.20643421  0.82114258     0.38800
C1786       C  0.05726816  0.25670555  0.75211922     0.35700
C1787       C  0.98057129  0.27357458  0.74610974     0.36400
C1788       C  0.01584253  0.19138235  0.68945768     0.39600
N1789       N  0.98575367  0.19659162  0.83527827    -0.38400
N1790       N  0.95488184  0.21204230  0.77328287    -0.40000
N1791       N  0.10234206  0.24378726  0.79732662    -0.37800
N1792       N  0.06917463  0.26700369  0.73814656    -0.40100
N1793       N  0.05325269  0.18565480  0.74011535    -0.39900
N1794       N  0.02387061  0.17489211  0.67830141    -0.37500
N1795       N  0.94320664  0.27996737  0.69442717    -0.38600
N1796       N  0.97381850  0.29031817  0.75766615    -0.40300
C1797       C  0.86487423  0.14338585  0.77644337    -0.05200
C1798       C  0.84658476  0.15752611  0.76396589     0.09000
C1799       C  0.82164356  0.16045857  0.77271408    -0.02600
C1800       C  0.81450246  0.14775975  0.79318027    -0.00800
C1801       C  0.83255080  0.13266594  0.80502741    -0.04500
C1802       C  0.85797681  0.13131515  0.79710167     0.02600
C1803       C  0.85364370  0.16748675  0.74080251     0.09400
C1804       C  0.80333250  0.17604101  0.76033308     0.35300
C1805       C  0.87711943  0.11730999  0.81010911     0.38700
C1806       C  0.84836470  0.15261505  0.72102153    -0.04800
C1807       C  0.86047532  0.15824484  0.69996354     0.02300
C1808       C  0.87817459  0.17851614  0.69882361    -0.04400
C1809       C  0.88154088  0.19477723  0.71804809    -0.00700
C1810       C  0.86925194  0.18928138  0.73903074    -0.03200
C1811       C  0.83178461  0.13052669  0.72275643     0.36000
C1812       C  0.89761478  0.21716173  0.71622028     0.39700
C1813       C  0.85589014  0.14217975  0.67993628     0.38800
C1814       C  0.87365027  0.20522277  0.75915798     0.35700
C1815       C  0.89058353  0.14040943  0.76748802     0.36400
C1816       C  0.78838850  0.14902469  0.80132690     0.39600
N1817       N  0.85209234  0.12944373  0.66395250    -0.38400
N1818       N  0.81857708  0.11289259  0.72414098    -0.40000
N1819       N  0.91019655  0.23521494  0.71477972    -0.37800
N1820       N  0.87718612  0.21789785  0.77523231    -0.40100
N1821       N  0.78881733  0.18859163  0.75043344    -0.39900
N1822       N  0.76752110  0.14989787  0.80780556    -0.37500
N1823       N  0.89256777  0.10634604  0.82039199    -0.38600
N1824       N  0.91102854  0.13800406  0.76026494    -0.40300
C1825       C  0.31376855  0.14580111  0.65274081    -0.05200
C1826       C  0.32809132  0.14902085  0.63236706     0.09000
C1827       C  0.32413854  0.13228695  0.61356919    -0.02600
C1828       C  0.30478946  0.11349865  0.61454303    -0.00800
C1829       C  0.28907944  0.11150977  0.63432658    -0.04500
C1830       C  0.29435295  0.12717800  0.65374701     0.02600
C1831       C  0.34480035  0.17209868  0.62968290     0.09400
C1832       C  0.33893460  0.13558855  0.59265027     0.35300
C1833       C  0.27909339  0.12490145  0.67454336     0.38700
C1834       C  0.37132123  0.17074363  0.63351222    -0.04800
C1835       C  0.38671534  0.19282361  0.63120598     0.02300
C1836       C  0.37550805  0.21678709  0.62567491    -0.04400
C1837       C  0.34875764  0.21770599  0.62129896    -0.00700
C1838       C  0.33368897  0.19551370  0.62321657    -0.03200
C1839       C  0.38267812  0.14652499  0.63997460     0.36000
C1840       C  0.33642552  0.24118974  0.61394748     0.39700
C1841       C  0.41403034  0.19057162  0.63462043     0.38800
C1842       C  0.30652750  0.19664741  0.61826346     0.35700
C1843       C  0.31812399  0.16268984  0.67224333     0.36400
C1844       C  0.29973235  0.09781975  0.59438832     0.39600
N1845       N  0.43585412  0.18856198  0.63711922    -0.38400
N1846       N  0.39165034  0.12715516  0.64514675    -0.40000
N1847       N  0.32644721  0.25981416  0.60806866    -0.37800
N1848       N  0.28490545  0.19747784  0.61425353    -0.40100
N1849       N  0.35073661  0.13837249  0.57597565    -0.39900
N1850       N  0.29574601  0.08540400  0.57823332    -0.37500
N1851       N  0.26681473  0.12323790  0.69106402    -0.38600
N1852       N  0.32155575  0.17625285  0.68773982    -0.40300
C1853       C  0.33716711  0.19032151  0.37088392    -0.05200
C1854       C  0.34548760  0.16732346  0.36063734     0.09000
C1855       C  0.37043360  0.16587564  0.35150421    -0.02600
C1856       C  0.38638135  0.18777971  0.35137495    -0.00800
C1857       C  0.37722922  0.21137907  0.36000572    -0.04500
C1858       C  0.35285628  0.21218329  0.37058437     0.02600
C1859       C  0.32689193  0.14557703  0.35829169     0.09400
C1860       C  0.37944040  0.14194445  0.34191142     0.35300
C1861       C  0.34394021  0.23542771  0.38168596     0.38700
C1862       C  0.30882190  0.14598454  0.34018987    -0.04800
C1863       C  0.28744537  0.12958283  0.34072370     0.02300
C1864       C  0.28428313  0.11216739  0.35907917    -0.04400
C1865       C  0.30365186  0.10998001  0.37594189    -0.00700
C1866       C  0.32477673  0.12683765  0.37569862    -0.03200
C1867       C  0.31178580  0.16409348  0.32146858     0.36000
C1868       C  0.30116504  0.09118359  0.39414111     0.39700
C1869       C  0.26836657  0.13111139  0.32263464     0.38800
C1870       C  0.34373372  0.12572117  0.39389276     0.35700
C1871       C  0.31213316  0.19151952  0.38154127     0.36400
C1872       C  0.41186250  0.18615033  0.34181123     0.39600
N1873       N  0.25335312  0.13245241  0.30802601    -0.38400
N1874       N  0.31430854  0.17851215  0.30653094    -0.40000
N1875       N  0.29911065  0.07608389  0.40858138    -0.37800
N1876       N  0.35890635  0.12483358  0.40840123    -0.40100
N1877       N  0.38661854  0.12277689  0.33433008    -0.39900
N1878       N  0.43228780  0.18478548  0.33433781    -0.37500
N1879       N  0.33675050  0.25387782  0.39060754    -0.38600
N1880       N  0.29218885  0.19236297  0.39006046    -0.40300
C1881       C  0.43183904  0.28891347  0.51305526    -0.05200
C1882       C  0.41282479  0.27452004  0.50174099     0.09000
C1883       C  0.39501440  0.26050711  0.51482857    -0.02600
C1884       C  0.39591061  0.26130187  0.53918019    -0.00800
C1885       C  0.41498533  0.27572319  0.55055733    -0.04500
C1886       C  0.43323483  0.28913090  0.53734568     0.02600
C1887       C  0.41200901  0.27397228  0.47593457     0.09400
C1888       C  0.37597848  0.24505307  0.50317280     0.35300
C1889       C  0.45334356  0.30346975  0.54864549     0.38700
C1890       C  0.42943849  0.25866310  0.46361998    -0.04800
C1891       C  0.43037376  0.25978095  0.43931780     0.02300
C1892       C  0.41359310  0.27616314  0.42701145    -0.04400
C1893       C  0.39527528  0.29061960  0.43951385    -0.00700
C1894       C  0.39470307  0.28964507  0.46385789    -0.03200
C1895       C  0.44632109  0.24155287  0.47609614     0.36000
C1896       C  0.37714169  0.30690528  0.42759794     0.39700
C1897       C  0.44812577  0.24328527  0.42713376     0.38800
C1898       C  0.37645107  0.30500872  0.47661361     0.35700
C1899       C  0.44978046  0.30380668  0.49958642     0.36400
C1900       C  0.37783248  0.24642285  0.55248230     0.39600
N1901       N  0.46233561  0.23011910  0.41749619    -0.38400
N1902       N  0.45969149  0.22787266  0.48609434    -0.40000
N1903       N  0.36247346  0.31980016  0.41824557    -0.37800
N1904       N  0.36186358  0.31717451  0.48683541    -0.40100
N1905       N  0.36082541  0.23269805  0.49384799    -0.39900
N1906       N  0.36345166  0.23444223  0.56303449    -0.37500
N1907       N  0.46964666  0.31471905  0.55747667    -0.38600
N1908       N  0.46397278  0.31571584  0.48875825    -0.40300
C1909       C  0.15823266  0.68563257  0.65168585    -0.05200
C1910       C  0.16000228  0.66938722  0.63223266     0.09000
C1911       C  0.14192202  0.67193265  0.61422422    -0.02600
C1912       C  0.12402197  0.69216936  0.61453341    -0.00800
C1913       C  0.12388719  0.70985969  0.63303588    -0.04500
C1914       C  0.13989850  0.70543235  0.65225892     0.02600
C1915       C  0.18275589  0.65206209  0.62925368     0.09400
C1916       C  0.14277253  0.65453919  0.59470810     0.35300
C1917       C  0.13723926  0.72114650  0.67276428     0.38700
C1918       C  0.18579624  0.62965249  0.64253428    -0.04800
C1919       C  0.20834641  0.61475878  0.64065416     0.02300
C1920       C  0.22754568  0.62137374  0.62444145    -0.04400
C1921       C  0.22334443  0.64295764  0.61000687    -0.00700
C1922       C  0.20177983  0.65868889  0.61316014    -0.03200
C1923       C  0.16573138  0.62207491  0.65829701     0.36000
C1924       C  0.24086796  0.64905127  0.59140143     0.39700
C1925       C  0.21199196  0.59332221  0.65613020     0.38800
C1926       C  0.19951311  0.68231688  0.60019562     0.35700
C1927       C  0.17620903  0.68291537  0.67056765     0.36400
C1928       C  0.10684766  0.69559824  0.59511935     0.39600
N1929       N  0.21488114  0.57631568  0.66860432    -0.38400
N1930       N  0.14966749  0.61603506  0.67083349    -0.40000
N1931       N  0.25478872  0.65390546  0.57655033    -0.37800
N1932       N  0.19770815  0.70121883  0.58999596    -0.40100
N1933       N  0.14362620  0.64074100  0.57909143    -0.39900
N1934       N  0.09309891  0.69828703  0.57965897    -0.37500
N1935       N  0.13475943  0.73346240  0.68922522    -0.38600
N1936       N  0.19056462  0.68074036  0.68563390    -0.40300
C1937       C  0.35299108  0.40220921  0.60679754    -0.05200
C1938       C  0.36763274  0.42383391  0.61271816     0.09000
C1939       C  0.39357404  0.42066791  0.61856345    -0.02600
C1940       C  0.40463006  0.39602001  0.61929037    -0.00800
C1941       C  0.38985995  0.37402378  0.61394590    -0.04500
C1942       C  0.36393147  0.37747063  0.60738366     0.02600
C1943       C  0.35521279  0.44967516  0.61501585     0.09400
C1944       C  0.40870094  0.44289658  0.62464405     0.35300
C1945       C  0.34768578  0.35557327  0.60295110     0.38700
C1946       C  0.34770967  0.45849326  0.63702126    -0.04800
C1947       C  0.33711722  0.48311587  0.63968546     0.02300
C1948       C  0.33380554  0.49931594  0.62032939    -0.04400
C1949       C  0.34071320  0.49024891  0.59819540    -0.00700
C1950       C  0.35137292  0.46550158  0.59556702    -0.03200
C1951       C  0.35102236  0.44214690  0.65702318     0.36000
C1952       C  0.33796453  0.50680130  0.57831141     0.39700
C1953       C  0.32939520  0.49165812  0.66249042     0.38800
C1954       C  0.35879646  0.45638778  0.57291477     0.35700
C1955       C  0.32620008  0.40539084  0.60117005     0.36400
C1956       C  0.43110402  0.39353184  0.62629728     0.39600
N1957       N  0.32339951  0.49853299  0.68068907    -0.38400
N1958       N  0.35370497  0.42910361  0.67295311    -0.40000
N1959       N  0.33582311  0.52012040  0.56250169    -0.37800
N1960       N  0.36469761  0.44899941  0.55485060    -0.40100
N1961       N  0.42069351  0.46064097  0.62957450    -0.39900
N1962       N  0.45212474  0.39176678  0.63223863    -0.37500
N1963       N  0.33458542  0.33818432  0.59952521    -0.38600
N1964       N  0.30481841  0.40798756  0.59674091    -0.40300
C1965       C  0.15641076  0.68050175  0.37748065    -0.05200
C1966       C  0.16149526  0.66916337  0.35583876     0.09000
C1967       C  0.14728203  0.67721121  0.33638451    -0.02600
C1968       C  0.12977794  0.69783734  0.33829754    -0.00800
C1969       C  0.12777065  0.71164082  0.35926858    -0.04500
C1970       C  0.14064258  0.70229358  0.37902931     0.02600
C1971       C  0.18483413  0.65241628  0.35338064     0.09400
C1972       C  0.15158910  0.66511376  0.31421244     0.35300
C1973       C  0.13870442  0.71568782  0.40089875     0.38700
C1974       C  0.18313057  0.62565474  0.35069192    -0.04800
C1975       C  0.20553056  0.61029973  0.35071802     0.02300
C1976       C  0.22997290  0.62149406  0.35420257    -0.04400
C1977       C  0.23133716  0.64850520  0.35694504    -0.00700
C1978       C  0.20912433  0.66370972  0.35579685    -0.03200
C1979       C  0.15824760  0.61387563  0.34832537     0.36000
C1980       C  0.25532026  0.66104791  0.36234517     0.39700
C1981       C  0.20318161  0.58300886  0.34699057     0.38800
C1982       C  0.21118057  0.69133026  0.35762499     0.35700
C1983       C  0.16855029  0.67036780  0.39805391     0.36400
C1984       C  0.11507401  0.70580612  0.31834646     0.39600
N1985       N  0.20124655  0.56123000  0.34398558    -0.38400
N1986       N  0.13838897  0.60445651  0.34639934    -0.40000
N1987       N  0.27428903  0.67122519  0.36683650    -0.37800
N1988       N  0.21265586  0.71332701  0.35911830    -0.40100
N1989       N  0.15500514  0.65540778  0.29651427    -0.39900
N1990       N  0.10325283  0.71218687  0.30247511    -0.37500
N1991       N  0.13778113  0.72642534  0.41835594    -0.38600
N1992       N  0.17814844  0.66212363  0.41442995    -0.40300
C1993       C  0.36910229  0.46460520  0.37455735    -0.05200
C1994       C  0.35360148  0.44291888  0.37123602     0.09000
C1995       C  0.32687274  0.44597062  0.37016215    -0.02600
C1996       C  0.31593079  0.47068543  0.36956534    -0.00800
C1997       C  0.33175769  0.49271501  0.37045019    -0.04500
C1998       C  0.35813155  0.48924894  0.37514901     0.02600
C1999       C  0.36545304  0.41711685  0.36723145     0.09400
C2000       C  0.31070623  0.42353028  0.36892953     0.35300
C2001       C  0.37394239  0.51085274  0.38152819     0.38700
C2002       C  0.37645372  0.40312752  0.38556906    -0.04800
C2003       C  0.38787062  0.37904870  0.38135996     0.02300
C2004       C  0.38769527  0.36840416  0.35889599    -0.04400
C2005       C  0.37731145  0.38281974  0.34048864    -0.00700
C2006       C  0.36626930  0.40694372  0.34465221    -0.03200
C2007       C  0.37597161  0.41352017  0.40877770     0.36000
C2008       C  0.37775600  0.37294619  0.31707610     0.39700
C2009       C  0.40124714  0.36601536  0.39983204     0.38800
C2010       C  0.35580811  0.42129520  0.32545213     0.35700
C2011       C  0.39655449  0.46164061  0.37642516     0.36400
C2012       C  0.28847150  0.47302654  0.36718439     0.39600
N2013       N  0.41232439  0.35582090  0.41445547    -0.38400
N2014       N  0.37563241  0.42185735  0.42729362    -0.40000
N2015       N  0.37831563  0.36540231  0.29830516    -0.37800
N2016       N  0.34762254  0.43220191  0.30975602    -0.40100
N2017       N  0.29785013  0.40559091  0.36799886    -0.39900
N2018       N  0.26655260  0.47477859  0.36535075    -0.37500
N2019       N  0.38648744  0.52795359  0.38716020    -0.38600
N2020       N  0.41844344  0.45921154  0.37784800    -0.40300
C2021       C  0.30430636  0.56436769  0.46626501    -0.05200
C2022       C  0.29436699  0.58594209  0.47778944     0.09000
C2023       C  0.28375616  0.60617342  0.46489163    -0.02600
C2024       C  0.28219695  0.60441071  0.44061929    -0.00800
C2025       C  0.29255608  0.58297488  0.42895488    -0.04500
C2026       C  0.30398643  0.56313750  0.44195705     0.02600
C2027       C  0.29472744  0.58700287  0.50361010     0.09400
C2028       C  0.27466306  0.62892029  0.47664681     0.35300
C2029       C  0.31639723  0.54186291  0.43044501     0.38700
C2030       C  0.31785106  0.59126190  0.51548244    -0.04800
C2031       C  0.31850171  0.59067601  0.53980417     0.02300
C2032       C  0.29581004  0.58645399  0.55252494    -0.04400
C2033       C  0.27256351  0.58255512  0.54052675    -0.00700
C2034       C  0.27210963  0.58267490  0.51618193    -0.03200
C2035       C  0.34103966  0.59621264  0.50258441     0.36000
C2036       C  0.24888247  0.57913389  0.55310710     0.39700
C2037       C  0.34280256  0.59355658  0.55158844     0.38800
C2038       C  0.24831913  0.57828237  0.50397001     0.35700
C2039       C  0.31488351  0.54337476  0.47953492     0.36400
C2040       C  0.26897545  0.62422597  0.42782161     0.39600
N2041       N  0.36221610  0.59579890  0.56091178    -0.38400
N2042       N  0.35954058  0.60012073  0.49230097    -0.40000
N2043       N  0.23001313  0.57637282  0.56315358    -0.37800
N2044       N  0.22936654  0.57489645  0.49416583    -0.40100
N2045       N  0.26754378  0.64711496  0.48602929    -0.39900
N2046       N  0.25822857  0.63992926  0.41766808    -0.37500
N2047       N  0.32648463  0.52490324  0.42142215    -0.38600
N2048       N  0.32330135  0.52671625  0.49022131    -0.40300
C2049       C  0.68075234  0.78722812  0.64124312    -0.05200
C2050       C  0.67030493  0.81145369  0.63647710     0.09000
C2051       C  0.64412800  0.81360755  0.63112553    -0.02600
C2052       C  0.62857433  0.79153571  0.62993078    -0.00800
C2053       C  0.63919841  0.76700858  0.63388889    -0.04500
C2054       C  0.66540430  0.76514757  0.63997379     0.02600
C2055       C  0.68773817  0.83411495  0.63491821     0.09400
C2056       C  0.63345814  0.83854188  0.62610151     0.35300
C2057       C  0.67701902  0.74062093  0.64503611     0.38700
C2058       C  0.69869679  0.84039436  0.61343263    -0.04800
C2059       C  0.71849923  0.85855192  0.61221164     0.02300
C2060       C  0.72709728  0.87105562  0.63240085    -0.04400
C2061       C  0.71521594  0.86584383  0.65371641    -0.00700
C2062       C  0.69574452  0.84720228  0.65502582    -0.03200
C2063       C  0.69063101  0.82692941  0.59275093     0.36000
C2064       C  0.72391141  0.87884584  0.67440732     0.39700
C2065       C  0.73119883  0.86297210  0.59035424     0.38800
C2066       C  0.68489466  0.84044903  0.67718146     0.35700
C2067       C  0.70771577  0.78498576  0.64673133     0.36400
C2068       C  0.60198932  0.79408905  0.62336253     0.39600
N2069       N  0.74130276  0.86595753  0.57282246    -0.38400
N2070       N  0.68418788  0.81610696  0.57631007    -0.40000
N2071       N  0.73094606  0.88931245  0.69084026    -0.37800
N2072       N  0.67634621  0.83488079  0.69487754    -0.40100
N2073       N  0.62502258  0.85846531  0.62202070    -0.39900
N2074       N  0.58077977  0.79612160  0.61808482    -0.37500
N2075       N  0.68701377  0.72143532  0.64913717    -0.38600
N2076       N  0.72921255  0.78326595  0.65105520    -0.40300
C2077       C  0.47154507  0.65238241  0.63660923    -0.05200
C2078       C  0.46347550  0.64710016  0.61387421     0.09000
C2079       C  0.47908664  0.65423720  0.59510764    -0.02600
C2080       C  0.50300672  0.66597836  0.59912235    -0.00800
C2081       C  0.51195973  0.66942066  0.62197231    -0.04500
C2082       C  0.49573878  0.66310677  0.64067210     0.02600
C2083       C  0.43820057  0.63435023  0.61017255     0.09400
C2084       C  0.47068022  0.64904800  0.57170810     0.35300
C2085       C  0.50378030  0.66785013  0.66427941     0.38700
C2086       C  0.41683973  0.64887207  0.60355292    -0.04800
C2087       C  0.39219092  0.63810015  0.60429913     0.02300
C2088       C  0.38846376  0.61283579  0.61288567    -0.04400
C2089       C  0.41043933  0.59751413  0.61702937    -0.00700
C2090       C  0.43508784  0.60833893  0.61574574    -0.03200
C2091       C  0.42014023  0.67543091  0.59704480     0.36000
C2092       C  0.40813604  0.57069677  0.62293781     0.39700
C2093       C  0.37092079  0.65354385  0.59631384     0.38800
C2094       C  0.45738909  0.59298967  0.62113274     0.35700
C2095       C  0.45481351  0.64674256  0.65590949     0.36400
C2096       C  0.51834938  0.67416569  0.57971978     0.39600
N2097       N  0.35407490  0.66597015  0.58990285    -0.38400
N2098       N  0.42280440  0.69659508  0.59185044    -0.40000
N2099       N  0.40643294  0.54926602  0.62757598    -0.37800
N2100       N  0.47519857  0.58083655  0.62550381    -0.40100
N2101       N  0.46391700  0.64487808  0.55305256    -0.39900
N2102       N  0.53020431  0.68104122  0.56409043    -0.37500
N2103       N  0.51046072  0.67136267  0.68305614    -0.38600
N2104       N  0.44141833  0.64224799  0.67123826    -0.40300
C2105       C  0.63991565  0.81336351  0.34473844    -0.05200
C2106       C  0.65782748  0.81773246  0.36254929     0.09000
C2107       C  0.65705103  0.80257379  0.38266805    -0.02600
C2108       C  0.64037571  0.78151871  0.38390338    -0.00800
C2109       C  0.62397646  0.77584436  0.36523636    -0.04500
C2110       C  0.62277080  0.79258247  0.34622461     0.02600
C2111       C  0.68011841  0.83518788  0.35885309     0.09400
C2112       C  0.67452532  0.80782898  0.40153552     0.35300
C2113       C  0.60474634  0.78763190  0.32775691     0.38700
C2114       C  0.67884823  0.86138425  0.36449754    -0.04800
C2115       C  0.70111978  0.87668898  0.36370404     0.02300
C2116       C  0.72493637  0.86564000  0.35785396    -0.04400
C2117       C  0.72582193  0.83948351  0.35144339    -0.00700
C2118       C  0.70347499  0.82456085  0.35155933    -0.03200
C2119       C  0.65483379  0.87221848  0.37210966     0.36000
C2120       C  0.74976509  0.82734817  0.34525276     0.39700
C2121       C  0.69977143  0.90332665  0.37047765     0.38800
C2122       C  0.70462586  0.79779818  0.34493103     0.35700
C2123       C  0.64017737  0.82935709  0.32436570     0.36400
C2124       C  0.64088086  0.76497989  0.40398054     0.39600
N2125       N  0.69872029  0.92459002  0.37590259    -0.38400
N2126       N  0.63563332  0.88076598  0.37825782    -0.40000
N2127       N  0.76849021  0.81691535  0.34040925    -0.37800
N2128       N  0.70547377  0.77647643  0.33966647    -0.40100
N2129       N  0.68849553  0.81209029  0.41654261    -0.39900
N2130       N  0.64133873  0.75182540  0.42000776    -0.37500
N2131       N  0.59015131  0.78373296  0.31316529    -0.38600
N2132       N  0.64044167  0.84214624  0.30809946    -0.40300
C2133       C  0.46913696  0.64749103  0.34919236    -0.05200
C2134       C  0.46445399  0.63299582  0.36926005     0.09000
C2135       C  0.48394322  0.63028415  0.38596161    -0.02600
C2136       C  0.50782446  0.64243941  0.38275875    -0.00800
C2137       C  0.51234298  0.65707994  0.36273766    -0.04500
C2138       C  0.49297575  0.65934250  0.34589967     0.02600
C2139       C  0.43893954  0.62033183  0.37200792     0.09400
C2140       C  0.47943796  0.61482682  0.40625513     0.35300
C2141       C  0.49774485  0.67331238  0.32477289     0.38700
C2142       C  0.43438374  0.59659560  0.36137273    -0.04800
C2143       C  0.40920268  0.58742036  0.35866936     0.02300
C2144       C  0.38800371  0.60190543  0.36692164    -0.04400
C2145       C  0.39309933  0.62488184  0.37933231    -0.00700
C2146       C  0.41843164  0.63381636  0.38192938    -0.03200
C2147       C  0.45581013  0.58195486  0.35256350     0.36000
C2148       C  0.37246625  0.64052826  0.38824478     0.39700
C2149       C  0.40555555  0.56334881  0.34663848     0.38800
C2150       C  0.42348142  0.65744056  0.39424995     0.35700
C2151       C  0.44936049  0.64996711  0.33175124     0.36400
C2152       C  0.52766477  0.64020033  0.40009985     0.39600
N2153       N  0.40289175  0.54424997  0.33682523    -0.38400
N2154       N  0.47295847  0.57027855  0.34567879    -0.40000
N2155       N  0.35610710  0.65318462  0.39530681    -0.37800
N2156       N  0.42759865  0.67617583  0.40421059    -0.40100
N2157       N  0.47584672  0.60238157  0.42241183    -0.39900
N2158       N  0.54358548  0.63856013  0.41388393    -0.37500
N2159       N  0.50134254  0.68416611  0.30772374    -0.38600
N2160       N  0.43354548  0.65183406  0.31789153    -0.40300
C2161       C  0.61061292  0.69618499  0.47052299    -0.05200
C2162       C  0.58886903  0.70419718  0.48277264     0.09000
C2163       C  0.56710030  0.71233299  0.47052118    -0.02600
C2164       C  0.56724241  0.71314519  0.44607285    -0.00800
C2165       C  0.58909431  0.70495293  0.43342035    -0.04500
C2166       C  0.61077155  0.69621846  0.44615265     0.02600
C2167       C  0.58939502  0.70439009  0.50871193     0.09400
C2168       C  0.54444860  0.71984633  0.48321973     0.35300
C2169       C  0.63359944  0.68699940  0.43463827     0.38700
C2170       C  0.59451823  0.72727730  0.52079386    -0.04800
C2171       C  0.59754359  0.72705470  0.54504447     0.02300
C2172       C  0.59544159  0.70388322  0.55742726    -0.04400
C2173       C  0.58976464  0.68107004  0.54532676    -0.00700
C2174       C  0.58678011  0.68134876  0.52109619    -0.03200
C2175       C  0.59733376  0.75096529  0.50811347     0.36000
C2176       C  0.58602596  0.65740855  0.55788281     0.39700
C2177       C  0.60396336  0.75051843  0.55709022     0.38800
C2178       C  0.58121451  0.65785089  0.50878328     0.35700
C2179       C  0.63309627  0.68798927  0.48321639     0.36400
C2180       C  0.54499835  0.72331588  0.43431607     0.39600
N2181       N  0.60917308  0.76920783  0.56669975    -0.38400
N2182       N  0.59952910  0.76982457  0.49792363    -0.40000
N2183       N  0.58278307  0.63862186  0.56795239    -0.37800
N2184       N  0.57685532  0.63911428  0.49891036    -0.40100
N2185       N  0.52636814  0.72574280  0.49337318    -0.39900
N2186       N  0.52723256  0.73156565  0.42505643    -0.37500
N2187       N  0.65194775  0.67967180  0.42569550    -0.38600
N2188       N  0.65094145  0.68145656  0.49341159    -0.40300
C2189       C  0.82500965  0.35230137  0.65194577    -0.05200
C2190       C  0.83154272  0.33520129  0.63400135     0.09000
C2191       C  0.81742242  0.33567002  0.61325693    -0.02600
C2192       C  0.79630702  0.35220821  0.61088089    -0.00800
C2193       C  0.78809943  0.36750860  0.62967795    -0.04500
C2194       C  0.80305181  0.36796756  0.65004156     0.02600
C2195       C  0.85142953  0.31481669  0.63761328     0.09400
C2196       C  0.82400621  0.31829989  0.59462163     0.35300
C2197       C  0.79502266  0.38306989  0.66969954     0.38700
C2198       C  0.84545569  0.29318105  0.65100258    -0.04800
C2199       C  0.86249289  0.27231671  0.65217149     0.02300
C2200       C  0.88536004  0.27219327  0.63897510    -0.04400
C2201       C  0.89182006  0.29454295  0.62638188    -0.00700
C2202       C  0.87512190  0.31584818  0.62610866    -0.03200
C2203       C  0.82108653  0.29192112  0.66284302     0.36000
C2204       C  0.91480643  0.29532972  0.61249259     0.39700
C2205       C  0.85605955  0.25092157  0.66696201     0.38800
C2206       C  0.88194591  0.33871345  0.61345521     0.35700
C2207       C  0.84058582  0.35320167  0.67263053     0.36400
C2208       C  0.78325515  0.35362264  0.58883268     0.39600
N2209       N  0.85067761  0.23392529  0.67872428    -0.38400
N2210       N  0.80161662  0.29095222  0.67220032    -0.40000
N2211       N  0.93307838  0.29599094  0.60130895    -0.37800
N2212       N  0.88736903  0.35701278  0.60342895    -0.40100
N2213       N  0.82926168  0.30438815  0.57981572    -0.39900
N2214       N  0.77324313  0.35480648  0.57106164    -0.37500
N2215       N  0.78875164  0.39480633  0.68565365    -0.38600
N2216       N  0.85312975  0.35397816  0.68907186    -0.40300
C2217       C  0.64232866  0.51036056  0.60616685    -0.05200
C2218       C  0.65541722  0.53275697  0.61287230     0.09000
C2219       C  0.68082866  0.53094224  0.62087584    -0.02600
C2220       C  0.69260726  0.50683053  0.62326154    -0.00800
C2221       C  0.67907050  0.48435413  0.61762691    -0.04500
C2222       C  0.65403110  0.48619566  0.60874869     0.02600
C2223       C  0.64173297  0.55795463  0.61390468     0.09400
C2224       C  0.69444657  0.55387559  0.62765939     0.35300
C2225       C  0.64013429  0.46315451  0.60278480     0.38700
C2226       C  0.62562863  0.56341774  0.63278590    -0.04800
C2227       C  0.61459313  0.58788396  0.63529087     0.02300
C2228       C  0.62022024  0.60750812  0.61923526    -0.04400
C2229       C  0.63577829  0.60168003  0.59990666    -0.00700
C2230       C  0.64621510  0.57693802  0.59716305    -0.03200
C2231       C  0.62165805  0.54418294  0.65043227     0.36000
C2232       C  0.64143114  0.62118054  0.58291434     0.39700
C2233       C  0.59918225  0.59321082  0.65554357     0.38800
C2234       C  0.66219444  0.57112638  0.57741573     0.35700
C2235       C  0.61657494  0.51223375  0.59716539     0.36400
C2236       C  0.71802341  0.50504790  0.63310628     0.39600
N2237       N  0.58698379  0.59733363  0.67177086    -0.38400
N2238       N  0.61870163  0.52883482  0.66452640    -0.40000
N2239       N  0.64610423  0.63671488  0.56937636    -0.37800
N2240       N  0.67496834  0.56647258  0.56167796    -0.40100
N2241       N  0.70528391  0.57220627  0.63301890    -0.39900
N2242       N  0.73821976  0.50360289  0.64110069    -0.37500
N2243       N  0.62905932  0.44474582  0.59807640    -0.38600
N2244       N  0.59602988  0.51380720  0.58996204    -0.40300
C2245       C  0.54965534  0.31380393  0.61482889    -0.05200
C2246       C  0.55278319  0.33962150  0.60867568     0.09000
C2247       C  0.53155997  0.35393504  0.60122847    -0.02600
C2248       C  0.50691613  0.34313298  0.60174591    -0.00800
C2249       C  0.50326699  0.31803416  0.61023083    -0.04500
C2250       C  0.52507423  0.30287120  0.61537140     0.02600
C2251       C  0.57809080  0.35226893  0.61199875     0.09400
C2252       C  0.53509692  0.38010414  0.59373419     0.35300
C2253       C  0.52247166  0.27653514  0.62282814     0.38700
C2254       C  0.59713334  0.35056244  0.59490216    -0.04800
C2255       C  0.62143897  0.36133898  0.59884381     0.02300
C2256       C  0.62689591  0.37362413  0.62004511    -0.04400
C2257       C  0.60748367  0.37592129  0.63689212    -0.00700
C2258       C  0.58319735  0.36527579  0.63284483    -0.03200
C2259       C  0.59172017  0.33743788  0.57338505     0.36000
C2260       C  0.61269662  0.38822810  0.65887385     0.39700
C2261       C  0.64057356  0.36038392  0.58081313     0.38800
C2262       C  0.56353958  0.36708615  0.65040660     0.35700
C2263       C  0.57170724  0.29889389  0.62183217     0.36400
C2264       C  0.48547232  0.35771952  0.59298430     0.39600
N2265       N  0.65568300  0.35976543  0.56627914    -0.38400
N2266       N  0.58736929  0.32689604  0.55624923    -0.40000
N2267       N  0.61676387  0.39806079  0.67640870    -0.37800
N2268       N  0.54781897  0.36850033  0.66436272    -0.40100
N2269       N  0.53801243  0.40099203  0.58780974    -0.39900
N2270       N  0.46847380  0.36922048  0.58557767    -0.37500
N2271       N  0.52048306  0.25556968  0.62886937    -0.38600
N2272       N  0.58929762  0.28705223  0.62745945    -0.40300
C2273       C  0.85570861  0.30509083  0.37972216    -0.05200
C2274       C  0.84733447  0.31299205  0.35771846     0.09000
C2275       C  0.85801863  0.30153454  0.33783558    -0.02600
C2276       C  0.87570078  0.28116839  0.34004462    -0.00800
C2277       C  0.88156215  0.27125963  0.36210673    -0.04500
C2278       C  0.87192037  0.28374239  0.38194315     0.02600
C2279       C  0.82390189  0.32949323  0.35608472     0.09400
C2280       C  0.84946394  0.30955380  0.31518668     0.35300
C2281       C  0.87719126  0.27368271  0.40475290     0.38700
C2282       C  0.82543253  0.35598722  0.35190537    -0.04800
C2283       C  0.80317056  0.37141768  0.35283664     0.02300
C2284       C  0.77911441  0.36041952  0.35811184    -0.04400
C2285       C  0.77786141  0.33364959  0.36215233    -0.00700
C2286       C  0.79997196  0.31839365  0.36073910    -0.03200
C2287       C  0.84998724  0.36732087  0.34677392     0.36000
C2288       C  0.75413115  0.32153460  0.36897519     0.39700
C2289       C  0.80514413  0.39851919  0.34806146     0.38800
C2290       C  0.79823816  0.29101355  0.36454637     0.35700
C2291       C  0.84617969  0.31798810  0.40018368     0.36400
C2292       C  0.88611304  0.26901600  0.31960285     0.39600
N2293       N  0.80674388  0.42016047  0.34428557    -0.38400
N2294       N  0.86959540  0.37631748  0.34257402    -0.40000
N2295       N  0.73534199  0.31164653  0.37442350    -0.37800
N2296       N  0.79700478  0.26921039  0.36759747    -0.40100
N2297       N  0.84249682  0.31592782  0.29712765    -0.39900
N2298       N  0.89428835  0.25916827  0.30330050    -0.37500
N2299       N  0.88063724  0.26571387  0.42310106    -0.38600
N2300       N  0.83859820  0.32834782  0.41645969    -0.40300
C2301       C  0.64307282  0.58305739  0.39158104    -0.05200
C2302       C  0.65353716  0.56942004  0.37280644     0.09000
C2303       C  0.65344850  0.58055533  0.35066649    -0.02600
C2304       C  0.64149148  0.60433015  0.34693346    -0.00800
C2305       C  0.63052448  0.61802572  0.36564413    -0.04500
C2306       C  0.63176764  0.60734489  0.38808335     0.02600
C2307       C  0.66132354  0.54191217  0.37516597     0.09400
C2308       C  0.66535011  0.56711145  0.33153691     0.35300
C2309       C  0.61986079  0.62043195  0.40734807     0.38700
C2310       C  0.64454057  0.52288026  0.36718499    -0.04800
C2311       C  0.65305245  0.49752686  0.36423427     0.02300
C2312       C  0.67811677  0.49017500  0.37126548    -0.04400
C2313       C  0.69404834  0.50912604  0.38148051    -0.00700
C2314       C  0.68594965  0.53495054  0.38265862    -0.03200
C2315       C  0.61850580  0.52978158  0.36116558     0.36000
C2316       C  0.71885470  0.50239050  0.39078974     0.39700
C2317       C  0.63619264  0.47993676  0.35225114     0.38800
C2318       C  0.70322152  0.55456511  0.39093076     0.35700
C2319       C  0.64332446  0.57170808  0.41437639     0.36400
C2320       C  0.64018899  0.61420063  0.32356393     0.39600
N2321       N  0.62264488  0.46628780  0.34238129    -0.38400
N2322       N  0.59775929  0.53537843  0.35652516    -0.40000
N2323       N  0.73861999  0.49705800  0.39832141    -0.37800
N2324       N  0.71704019  0.57023286  0.39745066    -0.40100
N2325       N  0.67494672  0.55635615  0.31638134    -0.39900
N2326       N  0.63893856  0.62157660  0.30477810    -0.37500
N2327       N  0.61018091  0.63074316  0.42271058    -0.38600
N2328       N  0.64360130  0.56265567  0.43258219    -0.40300
C2329       C  0.53649258  0.34612832  0.34858633    -0.05200
C2330       C  0.54741745  0.34437958  0.37080325     0.09000
C2331       C  0.53387271  0.33190925  0.38855724    -0.02600
C2332       C  0.50991349  0.32049214  0.38393400    -0.00800
C2333       C  0.49920531  0.32172472  0.36154683    -0.04500
C2334       C  0.51240003  0.33517605  0.34402671     0.02600
C2335       C  0.57386782  0.35451632  0.37483828     0.09400
C2336       C  0.54466926  0.33091384  0.41158093     0.35300
C2337       C  0.50176357  0.33690512  0.32092490     0.38700
C2338       C  0.57795657  0.38079580  0.37895914    -0.04800
C2339       C  0.60299701  0.39085187  0.37894144     0.02300
C2340       C  0.62408033  0.37472620  0.37466212    -0.04400
C2341       C  0.62005820  0.34808812  0.37238135    -0.00700
C2342       C  0.59504816  0.33808464  0.37241090    -0.03200
C2343       C  0.55630446  0.39752575  0.38269512     0.36000
C2344       C  0.64147674  0.33098528  0.36865360     0.39700
C2345       C  0.60716479  0.41767795  0.38383022     0.38800
C2346       C  0.59097115  0.31094581  0.36888987     0.35700
C2347       C  0.55046873  0.35869943  0.33021550     0.36400
C2348       C  0.49588588  0.30827211  0.40241185     0.39600
N2349       N  0.61050929  0.43899348  0.38817958    -0.38400
N2350       N  0.53900050  0.41086162  0.38571183    -0.40000
N2351       N  0.65845956  0.31720891  0.36572776    -0.37800
N2352       N  0.58765294  0.28930752  0.36609799    -0.40100
N2353       N  0.55332637  0.33023751  0.42995740    -0.39900
N2354       N  0.48464316  0.29868030  0.41722345    -0.37500
N2355       N  0.49338586  0.33828230  0.30247131    -0.38600
N2356       N  0.56172985  0.36868387  0.31562578    -0.40300
C2357       C  0.69729498  0.40150767  0.46995688    -0.05200
C2358       C  0.72083717  0.40110159  0.48176840     0.09000
C2359       C  0.74389419  0.40128623  0.46921990    -0.02600
C2360       C  0.74339832  0.40153458  0.44487952    -0.00800
C2361       C  0.71984513  0.40182994  0.43308737    -0.04500
C2362       C  0.69679291  0.40196404  0.44564786     0.02600
C2363       C  0.72123675  0.40040927  0.50752453     0.09400
C2364       C  0.76805929  0.40122784  0.48143073     0.35300
C2365       C  0.67253040  0.40302938  0.43362095     0.38700
C2366       C  0.71956288  0.37686397  0.51913000    -0.04800
C2367       C  0.71869822  0.37619042  0.54344175     0.02300
C2368       C  0.72042795  0.39915486  0.55640154    -0.04400
C2369       C  0.72260746  0.42274910  0.54457576    -0.00700
C2370       C  0.72263198  0.42331775  0.52023859    -0.03200
C2371       C  0.71894983  0.35328272  0.50593046     0.36000
C2372       C  0.72405704  0.44667290  0.55719895     0.39700
C2373       C  0.71658878  0.35167821  0.55494747     0.38800
C2374       C  0.72372383  0.44754348  0.50814846     0.35700
C2375       C  0.67361640  0.40159911  0.48290765     0.36400
C2376       C  0.76705248  0.40114485  0.43191069     0.39600
N2377       N  0.71484171  0.33210788  0.56406681    -0.38400
N2378       N  0.71861889  0.33450153  0.49536194    -0.40000
N2379       N  0.72538065  0.46596232  0.56692458    -0.37800
N2380       N  0.72448866  0.46683677  0.49846287    -0.40100
N2381       N  0.78729421  0.40126235  0.49126001    -0.39900
N2382       N  0.78586207  0.40076147  0.42146939    -0.37500
N2383       N  0.65302575  0.40402498  0.42429154    -0.38600
N2384       N  0.65477065  0.40167150  0.49329926    -0.40300
C2385       C  0.18382206  0.35381934  0.86705066    -0.05200
C2386       C  0.18374673  0.33064669  0.85454909     0.09000
C2387       C  0.20412158  0.32502578  0.83950231    -0.02600
C2388       C  0.22575163  0.34092438  0.83894258    -0.00800
C2389       C  0.22617899  0.36397031  0.85173255    -0.04500
C2390       C  0.20468386  0.37081637  0.86512337     0.02600
C2391       C  0.16494176  0.30996673  0.85992269     0.09400
C2392       C  0.20344925  0.30185333  0.82566206     0.35300
C2393       C  0.20502769  0.39424702  0.87852682     0.38700
C2394       C  0.14027396  0.30981065  0.85009883    -0.04800
C2395       C  0.12430888  0.28821662  0.85277381     0.02300
C2396       C  0.13322991  0.26657705  0.86491036    -0.04400
C2397       C  0.15753416  0.26731215  0.87555517    -0.00700
C2398       C  0.17310538  0.28902213  0.87333759    -0.03200
C2399       C  0.13170916  0.33153410  0.83669798     0.36000
C2400       C  0.16676277  0.24562458  0.88875826     0.39700
C2401       C  0.09927825  0.28781146  0.84211929     0.38800
C2402       C  0.19798947  0.28961525  0.88440254     0.35700
C2403       C  0.16331265  0.35925894  0.88308097     0.36400
C2404       C  0.24811171  0.33223134  0.82651903     0.39600
N2405       N  0.07927810  0.28756641  0.83363234    -0.38400
N2406       N  0.12487773  0.34894125  0.82606433    -0.40000
N2407       N  0.17431207  0.22836496  0.89919652    -0.37800
N2408       N  0.21785170  0.29017912  0.89314033    -0.40100
N2409       N  0.20286285  0.28338968  0.81465139    -0.39900
N2410       N  0.26558587  0.32398355  0.81686539    -0.37500
N2411       N  0.20542350  0.41294317  0.88921931    -0.38600
N2412       N  0.14701104  0.36346435  0.89599969    -0.40300
C2413       C  0.25502840  0.49589446  0.77360733    -0.05200
C2414       C  0.26552607  0.49057378  0.75174508     0.09000
C2415       C  0.27807790  0.46710472  0.74801961    -0.02600
C2416       C  0.28200447  0.44995019  0.76640304    -0.00800
C2417       C  0.27364861  0.45615739  0.78910852    -0.04500
C2418       C  0.25922272  0.47902174  0.79229203     0.02600
C2419       C  0.26607620  0.51045301  0.73311264     0.09400
C2420       C  0.28799052  0.46093655  0.72525660     0.35300
C2421       C  0.25023483  0.48659171  0.81498825     0.38700
C2422       C  0.28329191  0.53100221  0.73481774    -0.04800
C2423       C  0.28905625  0.54587678  0.71524697     0.02300
C2424       C  0.27808543  0.53996420  0.69333711    -0.04400
C2425       C  0.25850424  0.52109481  0.69253354    -0.00700
C2426       C  0.25239851  0.50676700  0.71243931    -0.03200
C2427       C  0.29598342  0.53634330  0.75660517     0.36000
C2428       C  0.24520463  0.51518375  0.67121107     0.39700
C2429       C  0.30708109  0.56665000  0.71802447     0.38800
C2430       C  0.23267209  0.48736268  0.71153494     0.35700
C2431       C  0.24064941  0.51930610  0.77700345     0.36400
C2432       C  0.29579825  0.42648540  0.76161161     0.39600
N2433       N  0.32166689  0.58299675  0.72045580    -0.38400
N2434       N  0.30602887  0.54107395  0.77388712    -0.40000
N2435       N  0.23457033  0.51026614  0.65425377    -0.37800
N2436       N  0.21692857  0.47189329  0.71088902    -0.40100
N2437       N  0.29572205  0.45576681  0.70713756    -0.39900
N2438       N  0.30725704  0.40818946  0.75730418    -0.37500
N2439       N  0.24319040  0.49285773  0.83306665    -0.38600
N2440       N  0.22923234  0.53800706  0.77971186    -0.40300
C2441       C  0.31053072  0.33714694  0.75521409    -0.05200
C2442       C  0.33467988  0.32565530  0.75254326     0.09000
C2443       C  0.35076395  0.32244656  0.77185983    -0.02600
C2444       C  0.34397370  0.33333196  0.79319888    -0.00800
C2445       C  0.32131071  0.34767897  0.79506742    -0.04500
C2446       C  0.30389511  0.34839415  0.77649455     0.02600
C2447       C  0.34540680  0.32174854  0.72903705     0.09400
C2448       C  0.37507477  0.30947787  0.76928985     0.35300
C2449       C  0.27994785  0.36206702  0.77886028     0.38700
C2450       C  0.35952178  0.34176915  0.71895922    -0.04800
C2451       C  0.37227210  0.33780050  0.69796806     0.02300
C2452       C  0.37121146  0.31370973  0.68711174    -0.04400
C2453       C  0.35596026  0.29408317  0.69645389    -0.00700
C2454       C  0.34303794  0.29812618  0.71750798    -0.03200
C2455       C  0.36148488  0.36629446  0.73058097     0.36000
C2456       C  0.35425678  0.26956742  0.68484750     0.39700
C2457       C  0.38637279  0.35859547  0.68742663     0.38800
C2458       C  0.32779203  0.27795851  0.72758957     0.35700
C2459       C  0.29329376  0.33866622  0.73567687     0.36400
C2460       C  0.36073101  0.33063111  0.81299291     0.39600
N2461       N  0.39748212  0.37522384  0.67898685    -0.38400
N2462       N  0.36311234  0.38579416  0.73990885    -0.40000
N2463       N  0.35280778  0.24997619  0.67564889    -0.37800
N2464       N  0.31555018  0.26189910  0.73563555    -0.40100
N2465       N  0.39447177  0.29916830  0.76715731    -0.39900
N2466       N  0.37403164  0.32817121  0.82879424    -0.37500
N2467       N  0.26086461  0.37300284  0.78079917    -0.38600
N2468       N  0.27952354  0.33970320  0.72007289    -0.40300
C2469       C  0.19976196  0.32983724  0.11992236    -0.05200
C2470       C  0.17707042  0.33928477  0.12980924     0.09000
C2471       C  0.17547786  0.36539260  0.13590383    -0.02600
C2472       C  0.19696415  0.38164069  0.13324799    -0.00800
C2473       C  0.22016953  0.37180924  0.12443519    -0.04500
C2474       C  0.22102320  0.34594842  0.11701107     0.02600
C2475       C  0.15563183  0.32090085  0.13446100     0.09400
C2476       C  0.15188394  0.37530919  0.14534812     0.35300
C2477       C  0.24366757  0.33574688  0.10586411     0.38700
C2478       C  0.15710825  0.30458126  0.15380698    -0.04800
C2479       C  0.14136255  0.28274079  0.15519235     0.02300
C2480       C  0.12357457  0.27737445  0.13751039    -0.04400
C2481       C  0.12033551  0.29506574  0.11934813    -0.00700
C2482       C  0.13646014  0.31666748  0.11772920    -0.03200
C2483       C  0.17582359  0.30965285  0.17170396     0.36000
C2484       C  0.10155507  0.29009050  0.10149274     0.39700
C2485       C  0.14408755  0.26533614  0.17446209     0.38800
C2486       C  0.13431261  0.33378015  0.09819435     0.35700
C2487       C  0.20136016  0.30316476  0.11309045     0.36400
C2488       C  0.19544548  0.40812680  0.14042812     0.39600
N2489       N  0.14642714  0.25162328  0.18995658    -0.38400
N2490       N  0.19075802  0.31382341  0.18595149    -0.40000
N2491       N  0.08656722  0.28600899  0.08726971    -0.37800
N2492       N  0.13259492  0.34748206  0.08261827    -0.40100
N2493       N  0.13297363  0.38318773  0.15281794    -0.39900
N2494       N  0.19425161  0.42929829  0.14611817    -0.37500
N2495       N  0.26158705  0.32746898  0.09688785    -0.38600
N2496       N  0.20259161  0.28187994  0.10776970    -0.40300
C2497       C  0.30256920  0.41702861  0.01395139    -0.05200
C2498       C  0.28287472  0.40390916  0.00226969     0.09000
C2499       C  0.26288992  0.39269536  0.01503501    -0.02600
C2500       C  0.26287336  0.39417544  0.03938849    -0.00800
C2501       C  0.28257700  0.40732009  0.05105062    -0.04500
C2502       C  0.30221483  0.41905951  0.03823313     0.02600
C2503       C  0.28313677  0.40237026  0.97642924     0.09400
C2504       C  0.24216621  0.37999965  0.00303634     0.35300
C2505       C  0.32219830  0.43307329  0.05006285     0.38700
C2506       C  0.29231159  0.38028034  0.96524779    -0.04800
C2507       C  0.29391888  0.37936963  0.94091562     0.02300
C2508       C  0.28687143  0.40092871  0.92743697    -0.04400
C2509       C  0.27718881  0.42294571  0.93890460    -0.00700
C2510       C  0.27511917  0.42344600  0.96319699    -0.03200
C2511       C  0.30020770  0.35845680  0.97891560     0.36000
C2512       C  0.26993657  0.44558892  0.92604415     0.39700
C2513       C  0.30218356  0.35581033  0.92996975     0.38800
C2514       C  0.26471165  0.44577565  0.97473552     0.35700
C2515       C  0.32330081  0.42827438  0.00089057     0.36400
C2516       C  0.24208361  0.38301537  0.05241399     0.39600
N2517       N  0.30881543  0.33699447  0.92132502    -0.38400
N2518       N  0.30644479  0.34105658  0.98985535    -0.40000
N2519       N  0.26412402  0.46374157  0.91593328    -0.37800
N2520       N  0.25634483  0.46351943  0.98396758    -0.40100
N2521       N  0.22560117  0.36993869  0.99343102    -0.39900
N2522       N  0.22540065  0.37424392  0.06277604    -0.37500
N2523       N  0.33800646  0.44443974  0.05950259    -0.38600
N2524       N  0.33979667  0.43715974  0.99035992    -0.40300
C2525       C  0.27858700  0.48923923  0.26647061    -0.05200
C2526       C  0.26002044  0.50037611  0.25196523     0.09000
C2527       C  0.24596645  0.52168247  0.26001960    -0.02600
C2528       C  0.25184485  0.53297920  0.28166091    -0.00800
C2529       C  0.27141345  0.52257817  0.29563230    -0.04500
C2530       C  0.28388371  0.49995237  0.28826849     0.02600
C2531       C  0.25773172  0.49106137  0.22745074     0.09400
C2532       C  0.22613216  0.53253177  0.24559693     0.35300
C2533       C  0.30301292  0.48806939  0.30284494     0.38700
C2534       C  0.24747697  0.46664617  0.22257350    -0.04800
C2535       C  0.25146227  0.45513813  0.20073184     0.02300
C2536       C  0.26558027  0.46808627  0.18363060    -0.04400
C2537       C  0.27345823  0.49350170  0.18774093    -0.00700
C2538       C  0.26969708  0.50489884  0.20957473    -0.03200
C2539       C  0.23417341  0.45280872  0.24054571     0.36000
C2540       C  0.28597801  0.50780141  0.16958659     0.39700
C2541       C  0.24271815  0.42928346  0.19644892     0.38800
C2542       C  0.27959221  0.53031295  0.21407252     0.35700
C2543       C  0.29339411  0.46752147  0.25839705     0.36400
C2544       C  0.23914995  0.55636642  0.28861225     0.39600
N2545       N  0.23582250  0.40864048  0.19293592    -0.38400
N2546       N  0.22365886  0.44177153  0.25496457    -0.40000
N2547       N  0.29581625  0.51939922  0.15514898    -0.37800
N2548       N  0.28742179  0.55060016  0.21767510    -0.40100
N2549       N  0.21030409  0.54120175  0.23407398    -0.39900
N2550       N  0.22915045  0.57514990  0.29407176    -0.37500
N2551       N  0.31846816  0.47903997  0.31451670    -0.38600
N2552       N  0.30521651  0.45025776  0.25191229    -0.40300
C2553       C  0.32931828  0.32668344  0.27085012    -0.05200
C2554       C  0.33921328  0.32174773  0.24871534     0.09000
C2555       C  0.36016153  0.30520220  0.24613656    -0.02600
C2556       C  0.37316224  0.29604117  0.26572672    -0.00800
C2557       C  0.36520585  0.30331813  0.28822702    -0.04500
C2558       C  0.34206875  0.31735571  0.29061201     0.02600
C2559       C  0.33096445  0.33752484  0.22862753     0.09400
C2560       C  0.36938543  0.29908739  0.22312609     0.35300
C2561       C  0.33232865  0.32436039  0.31321056     0.38700
C2562       C  0.34607067  0.35865285  0.22228861    -0.04800
C2563       C  0.34005383  0.37279534  0.20246490     0.02300
C2564       C  0.31836849  0.36640003  0.18911028    -0.04400
C2565       C  0.30298168  0.34545257  0.19560386    -0.00700
C2566       C  0.30939030  0.33093239  0.21531665    -0.03200
C2567       C  0.36831386  0.36552440  0.23591912     0.36000
C2568       C  0.28039746  0.33912196  0.18227907     0.39700
C2569       C  0.35712797  0.39311160  0.19522759     0.38800
C2570       C  0.29407339  0.30906248  0.22178323     0.35700
C2571       C  0.30695841  0.34282414  0.27325693     0.36400
C2572       C  0.39530367  0.27996530  0.26228948     0.39600
N2573       N  0.37086593  0.40917677  0.18948898    -0.38400
N2574       N  0.38616586  0.37107138  0.24657282    -0.40000
N2575       N  0.26235463  0.33411118  0.17165501    -0.37800
N2576       N  0.28186357  0.29159224  0.22696328    -0.40100
N2577       N  0.37673587  0.29437666  0.20477697    -0.39900
N2578       N  0.41305508  0.26741882  0.25883240    -0.37500
N2579       N  0.32456830  0.33014106  0.33117259    -0.38600
N2580       N  0.28909409  0.35567894  0.27512847    -0.40300
C2581       C  0.70440263  0.15876467  0.87238468    -0.05200
C2582       C  0.68370324  0.15085698  0.85851207     0.09000
C2583       C  0.68475240  0.12677201  0.84742715    -0.02600
C2584       C  0.70672535  0.11109572  0.84964085    -0.00800
C2585       C  0.72776607  0.11947816  0.86292040    -0.04500
C2586       C  0.72615331  0.14313461  0.87474417     0.02600
C2587       C  0.66144644  0.16870822  0.85528348     0.09400
C2588       C  0.66338919  0.11839046  0.83345048     0.35300
C2589       C  0.74680501  0.15141094  0.88971973     0.38700
C2590       C  0.65994175  0.18421167  0.83540033    -0.04800
C2591       C  0.64239435  0.20471985  0.83444518     0.02300
C2592       C  0.62659412  0.21028021  0.85357542    -0.04400
C2593       C  0.62660931  0.19342680  0.87265972    -0.00700
C2594       C  0.64392421  0.17271119  0.87345282    -0.03200
C2595       C  0.67731413  0.17976722  0.81634580     0.36000
C2596       C  0.60990514  0.19820332  0.89215703     0.39700
C2597       C  0.64036082  0.21988500  0.81361557     0.38800
C2598       C  0.64463385  0.15619229  0.89350946     0.35700
C2599       C  0.70353834  0.18343336  0.88387381     0.36400
C2600       C  0.70809573  0.08685891  0.83756036     0.39600
N2601       N  0.63856999  0.23167595  0.79681324    -0.38400
N2602       N  0.69119970  0.17615789  0.80116585    -0.40000
N2603       N  0.59654371  0.20200834  0.90768369    -0.37800
N2604       N  0.64525400  0.14304766  0.90953777    -0.40100
N2605       N  0.64633335  0.11176603  0.82223936    -0.39900
N2606       N  0.70926022  0.06749356  0.82793971    -0.37500
N2607       N  0.76315052  0.15811297  0.90173619    -0.38600
N2608       N  0.70274539  0.20310265  0.89300316    -0.40300
C2609       C  0.67412084  0.30067761  0.77006164    -0.05200
C2610       C  0.66456147  0.31653289  0.75242354     0.09000
C2611       C  0.64089689  0.32896599  0.75531288    -0.02600
C2612       C  0.62676220  0.32557250  0.77566355    -0.00800
C2613       C  0.63582514  0.30906827  0.79327064    -0.04500
C2614       C  0.65995746  0.29710994  0.79055806     0.02600
C2615       C  0.67962625  0.32195736  0.73112661     0.09400
C2616       C  0.63114518  0.34559189  0.73726019     0.35300
C2617       C  0.67039892  0.28114121  0.80869516     0.38700
C2618       C  0.67119206  0.31217334  0.70970848    -0.04800
C2619       C  0.67849528  0.32428048  0.68903346     0.02300
C2620       C  0.69498545  0.34554039  0.68980993    -0.04400
C2621       C  0.70597077  0.35313878  0.71096898    -0.00700
C2622       C  0.69824987  0.34138960  0.73165827    -0.03200
C2623       C  0.65331586  0.29104759  0.70921015     0.36000
C2624       C  0.72385707  0.37425202  0.71160768     0.39700
C2625       C  0.66711369  0.31652238  0.66728211     0.38800
C2626       C  0.70786406  0.35067293  0.75361523     0.35700
C2627       C  0.69845345  0.28792762  0.76698488     0.36400
C2628       C  0.60351115  0.34033320  0.77875990     0.39600
N2629       N  0.65786606  0.31050481  0.64995084    -0.38400
N2630       N  0.63905940  0.27418539  0.70891655    -0.40000
N2631       N  0.73808342  0.39112045  0.71225432    -0.37800
N2632       N  0.71555076  0.35802872  0.77114729    -0.40100
N2633       N  0.62337521  0.35865998  0.72276883    -0.39900
N2634       N  0.58507461  0.35223267  0.78114670    -0.37500
N2635       N  0.67890416  0.26852038  0.82318084    -0.38600
N2636       N  0.71786701  0.27773369  0.76454352    -0.40300
C2637       C  0.49751250  0.26553719  0.76661241    -0.05200
C2638       C  0.50959657  0.24891704  0.75086175     0.09000
C2639       C  0.53159402  0.23539840  0.75783337    -0.02600
C2640       C  0.54223244  0.23958777  0.78003035    -0.00800
C2641       C  0.53167707  0.25834298  0.79486566    -0.04500
C2642       C  0.50863757  0.27054543  0.78831453     0.02600
C2643       C  0.50100578  0.24920615  0.72612981     0.09400
C2644       C  0.54396932  0.21822560  0.74169901     0.35300
C2645       C  0.49647550  0.28885187  0.80358452     0.38700
C2646       C  0.51067768  0.26830710  0.71150987    -0.04800
C2647       C  0.49801707  0.27433300  0.69074972     0.02300
C2648       C  0.47586675  0.26058639  0.68383301    -0.04400
C2649       C  0.46780502  0.23964755  0.69746420    -0.00700
C2650       C  0.48027240  0.23413789  0.71862883    -0.03200
C2651       C  0.53294440  0.28287372  0.71862143     0.36000
C2652       C  0.44537162  0.22517437  0.69094834     0.39700
C2653       C  0.50723870  0.29587081  0.67742143     0.38800
C2654       C  0.47109344  0.21375939  0.73331636     0.35700
C2655       C  0.47423257  0.27862975  0.75986054     0.36400
C2656       C  0.56464251  0.22539828  0.78709645     0.39600
N2657       N  0.51460567  0.31350724  0.66745481    -0.38400
N2658       N  0.55071447  0.29441029  0.72429454    -0.40000
N2659       N  0.42736573  0.21361305  0.68599780    -0.37800
N2660       N  0.46386156  0.19746522  0.74507409    -0.40100
N2661       N  0.55393792  0.20463046  0.72876117    -0.39900
N2662       N  0.58229878  0.21374974  0.79284843    -0.37500
N2663       N  0.48655804  0.30371718  0.81534677    -0.38600
N2664       N  0.45568786  0.28897975  0.75434589    -0.40300
C2665       C  0.45838051  0.31691983  0.87074603    -0.05200
C2666       C  0.45758179  0.34353183  0.87436554     0.09000
C2667       C  0.48019140  0.35683455  0.87955283    -0.02600
C2668       C  0.50381296  0.34395854  0.87922395    -0.00800
C2669       C  0.50513515  0.31802321  0.87219882    -0.04500
C2670       C  0.48204354  0.30407632  0.86978679     0.02600
C2671       C  0.43311375  0.35775293  0.87122237     0.09400
C2672       C  0.47915600  0.38401129  0.88438513     0.35300
C2673       C  0.48228050  0.27679398  0.86531749     0.38700
C2674       C  0.41587354  0.36054185  0.88971561    -0.04800
C2675       C  0.39205017  0.37244672  0.88610524     0.02300
C2676       C  0.38540656  0.38158302  0.86398073    -0.04400
C2677       C  0.40320908  0.37983780  0.84572313    -0.00700
C2678       C  0.42692667  0.36778279  0.84932616    -0.03200
C2679       C  0.42245178  0.35053379  0.91226547     0.36000
C2680       C  0.39651546  0.38880107  0.82279467     0.39700
C2681       C  0.37438522  0.37545001  0.90516408     0.38800
C2682       C  0.44460285  0.36467947  0.83025140     0.35700
C2683       C  0.43481395  0.30298886  0.86695731     0.36400
C2684       C  0.52656676  0.35722820  0.88694098     0.39600
N2685       N  0.36037307  0.37803885  0.92041147    -0.38400
N2686       N  0.42773851  0.34246494  0.93023059    -0.40000
N2687       N  0.39123063  0.39579698  0.80445804    -0.37800
N2688       N  0.45868347  0.36208638  0.81505040    -0.40100
N2689       N  0.47823901  0.40572206  0.88809040    -0.39900
N2690       N  0.54459973  0.36769484  0.89354535    -0.37500
N2691       N  0.48238793  0.25502378  0.86178779    -0.38600
N2692       N  0.41600771  0.29189122  0.86397259    -0.40300
C2693       C  0.64847594  0.18635979  0.15237558    -0.05200
C2694       C  0.65686514  0.17371778  0.13223958     0.09000
C2695       C  0.64543858  0.17967909  0.11082306    -0.02600
C2696       C  0.62745790  0.19978168  0.10923979    -0.00800
C2697       C  0.62052599  0.21377895  0.12916637    -0.04500
C2698       C  0.63061413  0.20646210  0.15082309     0.02600
C2699       C  0.68073487  0.15782073  0.13304232     0.09400
C2700       C  0.65343290  0.16614791  0.09019470     0.35300
C2701       C  0.62375613  0.22055289  0.17145241     0.38700
C2702       C  0.67984822  0.13091140  0.13261462    -0.04800
C2703       C  0.70272546  0.11643370  0.13281918     0.02300
C2704       C  0.72682300  0.12883646  0.13384457    -0.04400
C2705       C  0.72737104  0.15597481  0.13498648    -0.00700
C2706       C  0.70455565  0.17023238  0.13418302    -0.03200
C2707       C  0.65530816  0.11818870  0.13172164     0.36000
C2708       C  0.75130837  0.16966564  0.13741671     0.39700
C2709       C  0.70122498  0.08884327  0.13108931     0.38800
C2710       C  0.70554877  0.19797349  0.13419655     0.35700
C2711       C  0.65947139  0.17965456  0.17455403     0.36400
C2712       C  0.61828888  0.20774592  0.08676066     0.39600
N2713       N  0.69994176  0.06682412  0.12968675    -0.38400
N2714       N  0.63569287  0.10808797  0.13098064    -0.40000
N2715       N  0.77023517  0.18085364  0.13929886    -0.37800
N2716       N  0.70620314  0.22006960  0.13416228    -0.40100
N2717       N  0.65978504  0.15522888  0.07378558    -0.39900
N2718       N  0.61138977  0.21412700  0.06869077    -0.37500
N2719       N  0.61852836  0.23168113  0.18804837    -0.38600
N2720       N  0.66830377  0.17435105  0.19222849    -0.40300
C2721       C  0.41975302  0.38185423  0.10035873    -0.05200
C2722       C  0.42496294  0.35720876  0.10907950     0.09000
C2723       C  0.40511675  0.34298781  0.11929843    -0.02600
C2724       C  0.38048007  0.35363638  0.12147543    -0.00800
C2725       C  0.37551322  0.37871522  0.11360469    -0.04500
C2726       C  0.39515518  0.39265427  0.10276905     0.02600
C2727       C  0.45192136  0.34755351  0.11038576     0.09400
C2728       C  0.41041027  0.31780232  0.12857089     0.35300
C2729       C  0.39021414  0.41822157  0.09436606     0.38700
C2730       C  0.46796654  0.35655269  0.12814559    -0.04800
C2731       C  0.49260929  0.34623219  0.13109789     0.02300
C2732       C  0.50164562  0.32657425  0.11619399    -0.04400
C2733       C  0.48570431  0.31812091  0.09793676    -0.00700
C2734       C  0.46092129  0.32849725  0.09514788    -0.03200
C2735       C  0.45851165  0.37570502  0.14419585     0.36000
C2736       C  0.49481547  0.29893629  0.08182808     0.39700
C2737       C  0.50741316  0.35441313  0.15099375     0.38800
C2738       C  0.44442592  0.31926985  0.07684609     0.35700
C2739       C  0.44000681  0.39634940  0.08952146     0.36400
C2740       C  0.36060637  0.33911745  0.13289691     0.39600
N2741       N  0.51868357  0.36079253  0.16720287    -0.38400
N2742       N  0.45087271  0.39091994  0.15696541    -0.40000
N2743       N  0.50214187  0.28364318  0.06897992    -0.37800
N2744       N  0.43120109  0.31183582  0.06230440    -0.40100
N2745       N  0.41469616  0.29773138  0.13597340    -0.39900
N2746       N  0.34501213  0.32727639  0.14208542    -0.37500
N2747       N  0.38658140  0.43866242  0.08755158    -0.38600
N2748       N  0.45623023  0.40787398  0.08091622    -0.40300
C2749       C  0.61118260  0.26044724  0.96629587    -0.05200
C2750       C  0.59038935  0.27044001  0.97886165     0.09000
C2751       C  0.56898310  0.28007007  0.96693797    -0.02600
C2752       C  0.56831632  0.27982815  0.94260462    -0.00800
C2753       C  0.58942206  0.27040440  0.92981348    -0.04500
C2754       C  0.61084175  0.26058020  0.94190624     0.02600
C2755       C  0.59097653  0.27131944  0.00473502     0.09400
C2756       C  0.54770961  0.29069084  0.97983389     0.35300
C2757       C  0.63238524  0.24997934  0.92939810     0.38700
C2758       C  0.60592916  0.28977981  0.01623839    -0.04800
C2759       C  0.60492964  0.29201602  0.04051801     0.02300
C2760       C  0.58879380  0.27587812  0.05356062    -0.04400
C2761       C  0.57402537  0.25716622  0.04191047    -0.00700
C2762       C  0.57532872  0.25478760  0.01767656    -0.03200
C2763       C  0.62188663  0.30696195  0.00294867     0.36000
C2764       C  0.55775540  0.23989284  0.05478480     0.39700
C2765       C  0.61953689  0.31196512  0.05173261     0.38800
C2766       C  0.56040346  0.23536228  0.00593745     0.35700
C2767       C  0.63293848  0.24993722  0.97854646     0.36400
C2768       C  0.54600291  0.29006137  0.93097634     0.39600
N2769       N  0.63125646  0.32817531  0.06019927    -0.38400
N2770       N  0.63465591  0.32057207  0.99230777    -0.40000
N2771       N  0.54477663  0.22611246  0.06503378    -0.37800
N2772       N  0.54844247  0.21994325  0.99654077    -0.40100
N2773       N  0.53077042  0.29906895  0.99018181    -0.39900
N2774       N  0.52799863  0.29810805  0.92197118    -0.37500
N2775       N  0.64958031  0.24155107  0.91942729    -0.38600
N2776       N  0.65031838  0.24161382  0.98832357    -0.40300
C2777       C  0.63316500  0.30046031  0.23570398    -0.05200
C2778       C  0.65471198  0.31640104  0.23624274     0.09000
C2779       C  0.66590903  0.32468530  0.21549491    -0.02600
C2780       C  0.65393921  0.31939905  0.19421114    -0.00800
C2781       C  0.63088701  0.30522651  0.19365463    -0.04500
C2782       C  0.62126311  0.29482318  0.21452221     0.02600
C2783       C  0.66173108  0.32933563  0.25822214     0.09400
C2784       C  0.68876876  0.34030390  0.21633297     0.35300
C2785       C  0.59843715  0.27920019  0.21453013     0.38700
C2786       C  0.68034543  0.31912460  0.27313776    -0.04800
C2787       C  0.68746633  0.33265805  0.29324721     0.02300
C2788       C  0.67540219  0.35611885  0.29867558    -0.04400
C2789       C  0.65564004  0.36541940  0.28421449    -0.00700
C2790       C  0.64930214  0.35236760  0.26385783    -0.03200
C2791       C  0.69217884  0.29483313  0.26763624     0.36000
C2792       C  0.64126612  0.38819548  0.29034589     0.39700
C2793       C  0.70782191  0.32286648  0.30770420     0.38800
C2794       C  0.63002743  0.36278838  0.24845136     0.35700
C2795       C  0.62228727  0.29134834  0.25719919     0.36400
C2796       C  0.66418811  0.33080310  0.17340661     0.39600
N2797       N  0.72414597  0.31493660  0.31909325    -0.38400
N2798       N  0.70149127  0.27536015  0.26328199    -0.40000
N2799       N  0.62974922  0.40632433  0.29512346    -0.37800
N2800       N  0.61478229  0.37108311  0.23608628    -0.40100
N2801       N  0.70699488  0.35273780  0.21713822    -0.39900
N2802       N  0.67252081  0.34020610  0.15701147    -0.37500
N2803       N  0.58015469  0.26684930  0.21453969    -0.38600
N2804       N  0.61366946  0.28417278  0.27438470    -0.40300
C2805       C  0.49292563  0.26520635  0.21434493    -0.05200
C2806       C  0.50239302  0.24429651  0.22701786     0.09000
C2807       C  0.52108918  0.22833315  0.21703595    -0.02600
C2808       C  0.53220653  0.23489184  0.19555907    -0.00800
C2809       C  0.52495870  0.25780089  0.18431039    -0.04500
C2810       C  0.50363653  0.27142999  0.19282668     0.02600
C2811       C  0.49404573  0.24104932  0.25156163     0.09400
C2812       C  0.52926676  0.20559210  0.22919272     0.35300
C2813       C  0.49151231  0.29089898  0.17888609     0.38700
C2814       C  0.47020947  0.22990533  0.25684363    -0.04800
C2815       C  0.45928057  0.23354108  0.27893949     0.02300
C2816       C  0.47180899  0.24906760  0.29532170    -0.04400
C2817       C  0.49706847  0.25699343  0.29110463    -0.00700
C2818       C  0.50811110  0.25319372  0.26922421    -0.03200
C2819       C  0.45622779  0.21636502  0.23904305     0.36000
C2820       C  0.51158150  0.26937159  0.30927470     0.39700
C2821       C  0.43452433  0.22277921  0.28430339     0.38800
C2822       C  0.53317116  0.26357366  0.26439638     0.35700
C2823       C  0.47278635  0.28106657  0.22390643     0.36400
C2824       C  0.55105912  0.21813675  0.18529205     0.39600
N2825       N  0.41468908  0.21429896  0.28851280    -0.38400
N2826       N  0.44503732  0.20565163  0.22477322    -0.40000
N2827       N  0.52350986  0.27878853  0.32379088    -0.37800
N2828       N  0.55314138  0.27202149  0.26073965    -0.40100
N2829       N  0.53570875  0.18738389  0.23888420    -0.39900
N2830       N  0.56566884  0.20436560  0.17693271    -0.37500
N2831       N  0.48081063  0.30591324  0.16793185    -0.38600
N2832       N  0.45683976  0.29386398  0.23149267    -0.40300
C2833       C  0.82101893  0.62714964  0.84480157    -0.05200
C2834       C  0.82394898  0.64769326  0.86044643     0.09000
C2835       C  0.80645673  0.65048029  0.87876494    -0.02600
C2836       C  0.78560189  0.63367566  0.88087321    -0.00800
C2837       C  0.78151892  0.61404571  0.86429948    -0.04500
C2838       C  0.79982461  0.61045489  0.84660136     0.02600
C2839       C  0.84432385  0.66761032  0.85720129     0.09400
C2840       C  0.80949443  0.67130589  0.89515108     0.35300
C2841       C  0.79624120  0.59052429  0.82948075     0.38700
C2842       C  0.84085775  0.68717166  0.84075599    -0.04800
C2843       C  0.85695788  0.70882694  0.84078904     0.02300
C2844       C  0.87662969  0.71131167  0.85749318    -0.04400
C2845       C  0.88107014  0.69082030  0.87298334    -0.00700
C2846       C  0.86515532  0.66901432  0.87262140    -0.03200
C2847       C  0.82003018  0.68542698  0.82429777     0.36000
C2848       C  0.90080517  0.69278196  0.89048243     0.39700
C2849       C  0.85297820  0.72864294  0.82366872     0.38800
C2850       C  0.86952975  0.64833906  0.88878459     0.35700
C2851       C  0.83960194  0.62356115  0.82657580     0.36400
C2852       C  0.76827528  0.63690701  0.90022750     0.39600
N2853       N  0.84967461  0.74442201  0.81002031    -0.38400
N2854       N  0.80347346  0.68390999  0.81112854    -0.40000
N2855       N  0.91648834  0.69441147  0.90449194    -0.37800
N2856       N  0.87298111  0.63183080  0.90167488    -0.40100
N2857       N  0.81200779  0.68788664  0.90820150    -0.39900
N2858       N  0.75445229  0.63962304  0.91560863    -0.37500
N2859       N  0.79332128  0.57461251  0.81582856    -0.38600
N2860       N  0.85446216  0.62071191  0.81203646    -0.40300
C2861       C  0.65949346  0.64599080  0.76816060    -0.05200
C2862       C  0.68101051  0.65526659  0.75629505     0.09000
C2863       C  0.70508703  0.65521530  0.76722945    -0.02600
C2864       C  0.70788183  0.64438442  0.78948240    -0.00800
C2865       C  0.68668273  0.63284132  0.80040248    -0.04500
C2866       C  0.66224993  0.63482062  0.79003002     0.02600
C2867       C  0.67792719  0.66248993  0.73150391     0.09400
C2868       C  0.72709620  0.66502510  0.75503676     0.35300
C2869       C  0.63980441  0.62442692  0.80129712     0.38700
C2870       C  0.67070144  0.68757498  0.72549352    -0.04800
C2871       C  0.65951582  0.69240807  0.70373338     0.02300
C2872       C  0.65544985  0.67204861  0.68813716    -0.04400
C2873       C  0.66550231  0.64766655  0.69312563    -0.00700
C2874       C  0.67677005  0.64289373  0.71476879    -0.03200
C2875       C  0.67318092  0.70794058  0.74232196     0.36000
C2876       C  0.66361760  0.62728432  0.67621644     0.39700
C2877       C  0.65015285  0.71776266  0.69824782     0.38800
C2878       C  0.68547929  0.61735758  0.72052284     0.35700
C2879       C  0.63456228  0.64635832  0.75715932     0.36400
C2880       C  0.73286522  0.64345039  0.80026291     0.39600
N2881       N  0.64250731  0.73794204  0.69391374    -0.38400
N2882       N  0.67524818  0.72417301  0.75578030    -0.40000
N2883       N  0.66244472  0.61096247  0.66276774    -0.37800
N2884       N  0.69238109  0.59699782  0.72517618    -0.40100
N2885       N  0.74467494  0.67279231  0.74523436    -0.39900
N2886       N  0.75279472  0.64255448  0.80884765    -0.37500
N2887       N  0.62173434  0.61596262  0.80981466    -0.38600
N2888       N  0.61466763  0.64625589  0.74849138    -0.40300
C2889       C  0.74512804  0.52900245  0.75452403    -0.05200
C2890       C  0.74688028  0.50216387  0.75453323     0.09000
C2891       C  0.74759382  0.48890806  0.77568853    -0.02600
C2892       C  0.74386666  0.50221546  0.79663889    -0.00800
C2893       C  0.73799811  0.52863298  0.79627324    -0.04500
C2894       C  0.74027921  0.54219135  0.77528920     0.02600
C2895       C  0.74212838  0.48780330  0.73264442     0.09400
C2896       C  0.75006870  0.46130569  0.77566914     0.35300
C2897       C  0.73698977  0.56964818  0.77486309     0.38700
C2898       C  0.76230151  0.47857440  0.71886370    -0.04800
C2899       C  0.75698360  0.46424884  0.69867401     0.02300
C2900       C  0.73143711  0.45836312  0.69276691    -0.04400
C2901       C  0.71133262  0.46942383  0.70574716    -0.00700
C2902       C  0.71668415  0.48382002  0.72565600    -0.03200
C2903       C  0.78842209  0.48393416  0.72548510     0.36000
C2904       C  0.68504556  0.46745996  0.69795399     0.39700
C2905       C  0.77773517  0.45616691  0.68385940     0.38800
C2906       C  0.69589696  0.49478266  0.73899770     0.35700
C2907       C  0.74661233  0.54277450  0.73286447     0.36400
C2908       C  0.74398355  0.48822753  0.81823573     0.39600
N2909       N  0.79434937  0.45025638  0.67183353    -0.38400
N2910       N  0.80927002  0.48825366  0.73079895    -0.40000
N2911       N  0.66405766  0.46628655  0.69180373    -0.37800
N2912       N  0.67941401  0.50366360  0.74960434    -0.40100
N2913       N  0.75188974  0.43927416  0.77556308    -0.39900
N2914       N  0.74405196  0.47703178  0.83544665    -0.37500
N2915       N  0.73441824  0.59156451  0.77419503    -0.38600
N2916       N  0.74790340  0.55371900  0.71556842    -0.40300
C2917       C  0.65672149  0.45900910  0.89273114    -0.05200
C2918       C  0.65358911  0.44196985  0.87396274     0.09000
C2919       C  0.66283487  0.44899378  0.85200625    -0.02600
C2920       C  0.67349351  0.47336863  0.84843259    -0.00800
C2921       C  0.67692668  0.49047391  0.86720188    -0.04500
C2922       C  0.66886466  0.48294692  0.88947264     0.02600
C2923       C  0.63919797  0.41720775  0.87637932     0.09400
C2924       C  0.66104269  0.43107618  0.83288404     0.35300
C2925       C  0.67161504  0.50045697  0.90874083     0.38700
C2926       C  0.61490546  0.41472128  0.86612449    -0.04800
C2927       C  0.60356937  0.39040995  0.86341475     0.02300
C2928       C  0.61626225  0.36802974  0.87135802    -0.04400
C2929       C  0.63939515  0.37111946  0.88401301    -0.00700
C2930       C  0.65086799  0.39551932  0.88618891    -0.03200
C2931       C  0.60197546  0.43734774  0.85755391     0.36000
C2932       C  0.65228327  0.34927551  0.89407637     0.39700
C2933       C  0.57891059  0.38879839  0.85207387     0.38800
C2934       C  0.67530600  0.39819695  0.89772093     0.35700
C2935       C  0.64666070  0.45225422  0.91518319     0.36400
C2936       C  0.68014875  0.48092075  0.82510730     0.39600
N2937       N  0.55928827  0.38773893  0.84292785    -0.38400
N2938       N  0.59179098  0.45544672  0.85072195    -0.40000
N2939       N  0.66259242  0.33194421  0.90225831    -0.37800
N2940       N  0.69474729  0.40038034  0.90700886    -0.40100
N2941       N  0.65964143  0.41672257  0.81771315    -0.39900
N2942       N  0.68481868  0.48683530  0.80634540    -0.37500
N2943       N  0.67382901  0.51450409  0.92406568    -0.38600
N2944       N  0.63856489  0.44686934  0.93309950    -0.40300
C2945       C  0.81252859  0.63856880  0.15851986    -0.05200
C2946       C  0.82355226  0.64928120  0.13848722     0.09000
C2947       C  0.81524139  0.64083852  0.11654994    -0.02600
C2948       C  0.79429670  0.62400493  0.11466111    -0.00800
C2949       C  0.78154616  0.61557883  0.13468620    -0.04500
C2950       C  0.79164056  0.62162656  0.15659397     0.02600
C2951       C  0.84048010  0.67238818  0.14026716     0.09400
C2952       C  0.82748592  0.65047332  0.09589307     0.35300
C2953       C  0.78035203  0.61045982  0.17706646     0.38700
C2954       C  0.86700068  0.67092815  0.13619583    -0.04800
C2955       C  0.88191850  0.69350261  0.13511999     0.02300
C2956       C  0.87038570  0.71780029  0.13826958    -0.04400
C2957       C  0.84399899  0.71885515  0.14384524    -0.00700
C2958       C  0.82919909  0.69639470  0.14446408    -0.03200
C2959       C  0.87874379  0.64618457  0.13247565     0.36000
C2960       C  0.83164111  0.74299584  0.14910948     0.39700
C2961       C  0.90882106  0.69160818  0.12959987     0.38800
C2962       C  0.80189347  0.69807307  0.14852906     0.35700
C2963       C  0.82205470  0.64583438  0.18108531     0.36400
C2964       C  0.78535885  0.61601663  0.09207765     0.39600
N2965       N  0.93028943  0.69003487  0.12516267    -0.38400
N2966       N  0.88808691  0.62641915  0.12946384    -0.40000
N2967       N  0.82125035  0.76193720  0.15338664    -0.37800
N2968       N  0.78012883  0.69932654  0.15167420    -0.40100
N2969       N  0.83740497  0.65808571  0.07945311    -0.39900
N2970       N  0.77849510  0.60951459  0.07400767    -0.37500
N2971       N  0.77133647  0.60127394  0.19327468    -0.38600
N2972       N  0.82966042  0.65164549  0.19910782    -0.40300
C2973       C  0.67302595  0.44871583  0.13155878    -0.05200
C2974       C  0.65284095  0.44520135  0.11570138     0.09000
C2975       C  0.64440067  0.46607703  0.10225256    -0.02600
C2976       C  0.65502757  0.49060981  0.10563898    -0.00800
C2977       C  0.67464119  0.49426590  0.12206549    -0.04500
C2978       C  0.68408795  0.47301943  0.13450656     0.02600
C2979       C  0.63939207  0.41991974  0.11461541     0.09400
C2980       C  0.62459621  0.46227243  0.08508886     0.35300
C2981       C  0.70445618  0.47617269  0.15124546     0.38700
C2982       C  0.61475209  0.41741887  0.12408786    -0.04800
C2983       C  0.60285661  0.39329162  0.12505745     0.02300
C2984       C  0.61639656  0.37090191  0.11864965    -0.04400
C2985       C  0.64123082  0.37357446  0.10910831    -0.00700
C2986       C  0.65202608  0.39805622  0.10609368    -0.03200
C2987       C  0.60201400  0.43961129  0.13379587     0.36000
C2988       C  0.65678956  0.35133668  0.10402520     0.39700
C2989       C  0.57648786  0.39187541  0.13241725     0.38800
C2990       C  0.67658313  0.40075676  0.09481043     0.35700
C2991       C  0.68187024  0.42744382  0.14551562     0.36400
C2992       C  0.64606056  0.51200302  0.09197888     0.39600
N2993       N  0.55535365  0.39120430  0.13808564    -0.38400
N2994       N  0.59200379  0.45732678  0.14163405    -0.40000
N2995       N  0.66950880  0.33373985  0.10021147    -0.37800
N2996       N  0.69612467  0.40292700  0.08574932    -0.40100
N2997       N  0.60875337  0.45915355  0.07144034    -0.39900
N2998       N  0.63893975  0.52909086  0.08107607    -0.37500
N2999       N  0.72074924  0.47825407  0.16459869    -0.38600
N3000       N  0.68900281  0.41047255  0.15656168    -0.40300
C3001       C  0.71778741  0.55404656  0.02156678    -0.05200
C3002       C  0.71779131  0.57719718  0.00926959     0.09000
C3003       C  0.71919558  0.60047570  0.02132767    -0.02600
C3004       C  0.72017078  0.60081305  0.04568445    -0.00800
C3005       C  0.71944436  0.57753262  0.05851749    -0.04500
C3006       C  0.71852181  0.55406801  0.04597685     0.02600
C3007       C  0.71654180  0.57716031  0.98342706     0.09400
C3008       C  0.71964252  0.62426832  0.00846617     0.35300
C3009       C  0.71790418  0.52964484  0.05778993     0.38700
C3010       C  0.69272221  0.57781812  0.97205507    -0.04800
C3011       C  0.69155847  0.57873756  0.94770640     0.02300
C3012       C  0.71429038  0.57844007  0.93455213    -0.04400
C3013       C  0.73814990  0.57766386  0.94605737    -0.00700
C3014       C  0.73922042  0.57718003  0.97038081    -0.03200
C3015       C  0.66941645  0.57739260  0.98551651     0.36000
C3016       C  0.76173211  0.57823176  0.93295086     0.39700
C3017       C  0.66693151  0.57940191  0.93624381     0.38800
C3018       C  0.76370291  0.57691263  0.98209104     0.35700
C3019       C  0.71693534  0.53011043  0.00890702     0.36400
C3020       C  0.72231014  0.62544772  0.05708106     0.39600
N3021       N  0.64730007  0.58001283  0.92708576    -0.38400
N3022       N  0.65087346  0.57693744  0.99633037    -0.40000
N3023       N  0.78052610  0.57868490  0.92249146    -0.37800
N3024       N  0.78321785  0.57675016  0.99145860    -0.40100
N3025       N  0.72000746  0.64318474  0.99818262    -0.39900
N3026       N  0.72406726  0.64517631  0.06602211    -0.37500
N3027       N  0.71747332  0.51008961  0.06705699    -0.38600
N3028       N  0.71629473  0.51107307  0.99872152    -0.40300
C3029       C  0.69447352  0.66600710  0.21852876    -0.05200
C3030       C  0.67311214  0.66140791  0.23265192     0.09000
C3031       C  0.65550096  0.64215231  0.22659243    -0.02600
C3032       C  0.65948130  0.62718294  0.20675561    -0.00800
C3033       C  0.68156393  0.63081931  0.19316165    -0.04500
C3034       C  0.69884751  0.65059980  0.19887948     0.02600
C3035       C  0.66909066  0.67589047  0.25453097     0.09400
C3036       C  0.63334134  0.63751576  0.24100883     0.35300
C3037       C  0.72151317  0.65464972  0.18506114     0.38700
C3038       C  0.65070539  0.69552079  0.25538591    -0.04800
C3039       C  0.64060314  0.70313784  0.27682000     0.02300
C3040       C  0.64812743  0.69034144  0.29714919    -0.04400
C3041       C  0.66988722  0.67441322  0.29662481    -0.00700
C3042       C  0.68017003  0.66689692  0.27518491    -0.03200
C3043       C  0.64091795  0.70642555  0.23415767     0.36000
C3044       C  0.68048047  0.66423170  0.31783957     0.39700
C3045       C  0.62225920  0.72384250  0.27802951     0.38800
C3046       C  0.70068898  0.64833087  0.27426198     0.35700
C3047       C  0.71190594  0.68651957  0.22433919     0.36400
C3048       C  0.64036526  0.60851056  0.20002033     0.39600
N3049       N  0.60783073  0.74055466  0.27895513    -0.38400
N3050       N  0.63306634  0.71506374  0.21719867    -0.40000
N3051       N  0.68894858  0.65617301  0.33479353    -0.37800
N3052       N  0.71708233  0.63353363  0.27348191    -0.40100
N3053       N  0.61569368  0.63375931  0.25248888    -0.39900
N3054       N  0.62509712  0.59367913  0.19464819    -0.37500
N3055       N  0.73963298  0.65804533  0.17410614    -0.38600
N3056       N  0.72572724  0.70298305  0.22896325    -0.40300
C3057       C  0.75966958  0.49984613  0.21864159    -0.05200
C3058       C  0.74317994  0.50064549  0.23785082     0.09000
C3059       C  0.72212162  0.51735817  0.23767742    -0.02600
C3060       C  0.71663411  0.53209740  0.21798330    -0.00800
C3061       C  0.73183182  0.52984194  0.19776684    -0.04500
C3062       C  0.75416563  0.51449567  0.19868240     0.02600
C3063       C  0.74578868  0.48222913  0.25750798     0.09400
C3064       C  0.70523598  0.51838650  0.25754550     0.35300
C3065       C  0.77078888  0.51252053  0.17877846     0.38700
C3066       C  0.75536494  0.49049639  0.27905801    -0.04800
C3067       C  0.75055118  0.47606390  0.29920534     0.02300
C3068       C  0.73649984  0.45309221  0.29774582    -0.04400
C3069       C  0.72946184  0.44353810  0.27580675    -0.00700
C3070       C  0.73391752  0.45813968  0.25579245    -0.03200
C3071       C  0.76887996  0.51457827  0.28057182     0.36000
C3072       C  0.71724119  0.41883334  0.27366559     0.39700
C3073       C  0.75831530  0.48581889  0.32157969     0.38800
C3074       C  0.72476974  0.44915798  0.23354796     0.35700
C3075       C  0.78175442  0.48317650  0.21917066     0.36400
C3076       C  0.69506030  0.54946895  0.21890047     0.39600
N3077       N  0.76440385  0.49360579  0.33947045    -0.38400
N3078       N  0.77973768  0.53377578  0.28169576    -0.40000
N3079       N  0.70776051  0.39907270  0.27121685    -0.37800
N3080       N  0.71744255  0.44205107  0.21580633    -0.40100
N3081       N  0.69180814  0.51899842  0.27338315    -0.39900
N3082       N  0.67769150  0.56303952  0.22025717    -0.37500
N3083       N  0.78407320  0.51092417  0.16289123    -0.38600
N3084       N  0.79936717  0.46984079  0.21960588    -0.40300
C3085       C  0.34834270  0.79652453  0.83758654    -0.05200
C3086       C  0.34669374  0.81170294  0.85771773     0.09000
C3087       C  0.36437209  0.80778102  0.87578989    -0.02600
C3088       C  0.38199831  0.78733834  0.87460825    -0.00800
C3089       C  0.38119222  0.77006797  0.85580741    -0.04500
C3090       C  0.36578951  0.77600458  0.83653232     0.02600
C3091       C  0.32442188  0.82944689  0.86091675     0.09400
C3092       C  0.36335444  0.82383717  0.89618587     0.35300
C3093       C  0.36853946  0.76138069  0.81539116     0.38700
C3094       C  0.30069732  0.81919571  0.86749669    -0.04800
C3095       C  0.27913832  0.83511554  0.86957641     0.02300
C3096       C  0.28067532  0.86154846  0.86408331    -0.04400
C3097       C  0.30491152  0.87208081  0.85896785    -0.00700
C3098       C  0.32666752  0.85602445  0.85733725    -0.03200
C3099       C  0.29843166  0.79198254  0.87193117     0.36000
C3100       C  0.30759116  0.89928100  0.85514253     0.39700
C3101       C  0.25561822  0.82413308  0.87832090     0.38800
C3102       C  0.35134969  0.86670279  0.85162068     0.35700
C3103       C  0.33115971  0.80126962  0.81842655     0.36400
C3104       C  0.40038651  0.78373930  0.89303321     0.39600
N3105       N  0.23702005  0.81522035  0.88542087    -0.38400
N3106       N  0.29663871  0.77027856  0.87531616    -0.40000
N3107       N  0.30984457  0.92103637  0.85228936    -0.37800
N3108       N  0.37112609  0.87515043  0.84715514    -0.40100
N3109       N  0.36245675  0.83664307  0.91247438    -0.39900
N3110       N  0.41526965  0.78104895  0.90760791    -0.37500
N3111       N  0.37116695  0.74995042  0.79843336    -0.38600
N3112       N  0.31733436  0.80501235  0.80320976    -0.40300
C3113       C  0.47624599  0.70562634  0.75431091    -0.05200
C3114       C  0.49620391  0.72368592  0.75538813     0.09000
C3115       C  0.49888045  0.73892023  0.77540914    -0.02600
C3116       C  0.48332835  0.73446111  0.79497744    -0.00800
C3117       C  0.46475694  0.71478585  0.79456802    -0.04500
C3118       C  0.46037117  0.70152433  0.77357228     0.02600
C3119       C  0.51516700  0.72525553  0.73593027     0.09400
C3120       C  0.51804027  0.75887345  0.77597105     0.35300
C3121       C  0.43924249  0.68375849  0.77139554     0.38700
C3122       C  0.50783626  0.73481075  0.71415782    -0.04800
C3123       C  0.52380086  0.73137336  0.69469886     0.02300
C3124       C  0.54798109  0.71922197  0.69706816    -0.04400
C3125       C  0.55640914  0.71266579  0.71956543    -0.00700
C3126       C  0.53986838  0.71492038  0.73869718    -0.03200
C3127       C  0.48327707  0.74736123  0.71167133     0.36000
C3128       C  0.58220395  0.70352255  0.72325349     0.39700
C3129       C  0.51425229  0.73879024  0.67218168     0.38800
C3130       C  0.54789062  0.70547769  0.76109654     0.35700
C3131       C  0.47227639  0.69063133  0.73352116     0.36400
C3132       C  0.48722722  0.74955756  0.81569110     0.39600
N3133       N  0.50644720  0.74462127  0.65423152    -0.38400
N3134       N  0.46369181  0.75734360  0.70976547    -0.40000
N3135       N  0.60279074  0.69638002  0.72632897    -0.37800
N3136       N  0.55429081  0.69793393  0.77897012    -0.40100
N3137       N  0.53334786  0.77478013  0.77639164    -0.39900
N3138       N  0.49026044  0.76172968  0.83217080    -0.37500
N3139       N  0.42249136  0.66959808  0.76909906    -0.38600
N3140       N  0.46858523  0.67861976  0.71706710    -0.40300
C3141       C  0.35492441  0.64281703  0.76336693    -0.05200
C3142       C  0.33766108  0.66126386  0.75493581     0.09000
C3143       C  0.32948027  0.68140180  0.76936185    -0.02600
C3144       C  0.34013030  0.68417450  0.79162724    -0.00800
C3145       C  0.35948423  0.66725702  0.79893754    -0.04500
C3146       C  0.36527225  0.64545721  0.78553328     0.02600
C3147       C  0.32891593  0.65919637  0.73058552     0.09400
C3148       C  0.31108388  0.69980341  0.76086250     0.35300
C3149       C  0.38181749  0.62556544  0.79463208     0.38700
C3150       C  0.30613777  0.64605704  0.72541509    -0.04800
C3151       C  0.30158882  0.63746341  0.70274037     0.02300
C3152       C  0.32032222  0.64115759  0.68562872    -0.04400
C3153       C  0.34193097  0.65629208  0.69029529    -0.00700
C3154       C  0.34596585  0.66578588  0.71272443    -0.03200
C3155       C  0.28868437  0.63928226  0.74381234     0.36000
C3156       C  0.36074210  0.66068779  0.67237521     0.39700
C3157       C  0.27896677  0.62253689  0.69755344     0.38800
C3158       C  0.36869320  0.68053474  0.71793500     0.35700
C3159       C  0.36327242  0.62184663  0.74875787     0.36400
C3160       C  0.33129799  0.70433204  0.80682009     0.39600
N3161       N  0.26103985  0.61049285  0.69337215    -0.38400
N3162       N  0.27487646  0.63373673  0.75854138    -0.40000
N3163       N  0.37577906  0.66410562  0.65810181    -0.37800
N3164       N  0.38681054  0.69228043  0.72215784    -0.40100
N3165       N  0.29645142  0.71452373  0.75400211    -0.39900
N3166       N  0.32383512  0.72012314  0.81909181    -0.37500
N3167       N  0.39482771  0.60960216  0.80189331    -0.38600
N3168       N  0.37047237  0.60531711  0.73717781    -0.40300
C3169       C  0.52677525  0.62156126  0.85453212    -0.05200
C3170       C  0.54277760  0.62880135  0.87300640     0.09000
C3171       C  0.53419542  0.64731628  0.88901363    -0.02600
C3172       C  0.51046298  0.65965582  0.88575806    -0.00800
C3173       C  0.49439117  0.65243915  0.86722866    -0.04500
C3174       C  0.50264098  0.63307399  0.85175794     0.02600
C3175       C  0.56999115  0.61982057  0.87334657     0.09400
C3176       C  0.55018127  0.65408664  0.90854114     0.35300
C3177       C  0.48727124  0.62620837  0.83181252     0.38700
C3178       C  0.58937204  0.63679318  0.86644584    -0.04800
C3179       C  0.61473228  0.62825622  0.86430387     0.02300
C3180       C  0.62098445  0.60213528  0.86812439    -0.04400
C3181       C  0.60156901  0.58524561  0.87553651    -0.00700
C3182       C  0.57626295  0.59418212  0.87845148    -0.03200
C3183       C  0.58298098  0.66300536  0.86053788     0.36000
C3184       C  0.60759145  0.55876783  0.88050201     0.39700
C3185       C  0.63396128  0.64648420  0.85694259     0.38800
C3186       C  0.55652905  0.57697207  0.88646269     0.35700
C3187       C  0.53573262  0.60310425  0.83762714     0.36400
C3188       C  0.50299004  0.68017343  0.90119798     0.39600
N3189       N  0.64917177  0.66111067  0.85108437    -0.38400
N3190       N  0.57784182  0.68386358  0.85584600    -0.40000
N3191       N  0.61243800  0.53763898  0.88441509    -0.37800
N3192       N  0.54074483  0.56326332  0.89284767    -0.40100
N3193       N  0.56294889  0.65945759  0.92412337    -0.39900
N3194       N  0.49723435  0.69672598  0.91340855    -0.37500
N3195       N  0.47521812  0.62068743  0.81580759    -0.38600
N3196       N  0.54292550  0.58838449  0.82419099    -0.40300
C3197       C  0.38143526  0.56700035  0.87803034    -0.05200
C3198       C  0.35463439  0.56466308  0.87888283     0.09000
C3199       C  0.33938532  0.58683747  0.88026719    -0.02600
C3200       C  0.35073641  0.61125256  0.87890784    -0.00800
C3201       C  0.37751281  0.61357671  0.87643036    -0.04500
C3202       C  0.39285639  0.59135898  0.87710504     0.02600
C3203       C  0.34259194  0.53913003  0.87465426     0.09400
C3204       C  0.31186127  0.58441527  0.88160100     0.35300
C3205       C  0.42044438  0.59352728  0.87631895     0.38700
C3206       C  0.34026380  0.52096618  0.89251205    -0.04800
C3207       C  0.33115203  0.49609242  0.88760473     0.02300
C3208       C  0.32453427  0.48925708  0.86474352    -0.04400
C3209       C  0.32690011  0.50760109  0.84693166    -0.00700
C3210       C  0.33542877  0.53248850  0.85195527    -0.03200
C3211       C  0.34779895  0.52778433  0.91579957     0.36000
C3212       C  0.32128979  0.50078643  0.82317489     0.39700
C3213       C  0.33039772  0.47704868  0.90572752     0.38800
C3214       C  0.33738611  0.55125908  0.83360577     0.35700
C3215       C  0.39715241  0.54423277  0.87654490     0.36400
C3216       C  0.33459378  0.63376425  0.87806796     0.39600
N3217       N  0.33009215  0.46177931  0.92014290    -0.38400
N3218       N  0.35388486  0.53325796  0.93437135    -0.40000
N3219       N  0.31743727  0.49526849  0.80414385    -0.37800
N3220       N  0.33885554  0.56633977  0.81908775    -0.40100
N3221       N  0.28989708  0.58246972  0.88258634    -0.39900
N3222       N  0.32169659  0.65170236  0.87729707    -0.37500
N3223       N  0.44245068  0.59522254  0.87577053    -0.38600
N3224       N  0.40957552  0.52600297  0.87522472    -0.40300
C3225       C  0.34543807  0.80243552  0.10546249    -0.05200
C3226       C  0.34278645  0.81743756  0.12560817     0.09000
C3227       C  0.35990373  0.81372782  0.14418352    -0.02600
C3228       C  0.37807434  0.79370829  0.14338543    -0.00800
C3229       C  0.37906419  0.77728918  0.12407198    -0.04500
C3230       C  0.36352725  0.78245730  0.10468980     0.02600
C3231       C  0.31991479  0.83457525  0.12826568     0.09400
C3232       C  0.35798840  0.82981429  0.16448658     0.35300
C3233       C  0.36570118  0.76670228  0.08413425     0.38700
C3234       C  0.29654026  0.82392739  0.13542964    -0.04800
C3235       C  0.27425667  0.83905512  0.13633614     0.02300
C3236       C  0.27501302  0.86527315  0.13015630    -0.04400
C3237       C  0.29876187  0.87614779  0.12380796    -0.00700
C3238       C  0.32104079  0.86078052  0.12270789    -0.03200
C3239       C  0.29535955  0.79702839  0.14141244     0.36000
C3240       C  0.30015751  0.90281129  0.11723647     0.39700
C3241       C  0.25058818  0.82730733  0.14375807     0.38800
C3242       C  0.34501241  0.87165481  0.11510843     0.35700
C3243       C  0.32868187  0.80684097  0.08592269     0.36400
C3244       C  0.39507170  0.78931700  0.16273476     0.39600
N3245       N  0.23192963  0.81750245  0.14966051    -0.38400
N3246       N  0.29449505  0.77557005  0.14610308    -0.40000
N3247       N  0.30130421  0.92409993  0.11199686    -0.37800
N3248       N  0.36417334  0.88023730  0.10897332    -0.40100
N3249       N  0.35641933  0.84274720  0.18064878    -0.39900
N3250       N  0.40880709  0.78583105  0.17806949    -0.37500
N3251       N  0.36749294  0.75424280  0.06768532    -0.38600
N3252       N  0.31528068  0.81035603  0.07035350    -0.40300
C3253       C  0.53410443  0.65335899  0.09884024    -0.05200
C3254       C  0.54800261  0.64346887  0.11777269     0.09000
C3255       C  0.53745814  0.64517063  0.14017850    -0.02600
C3256       C  0.51317600  0.65622836  0.14359676    -0.00800
C3257       C  0.49925309  0.66609221  0.12469387    -0.04500
C3258       C  0.50989716  0.66481583  0.10232109     0.02600
C3259       C  0.57388680  0.63139533  0.11458626     0.09400
C3260       C  0.55187028  0.63581987  0.15984623     0.35300
C3261       C  0.49567485  0.67478395  0.08282826     0.38700
C3262       C  0.59570318  0.64676532  0.11133992    -0.04800
C3263       C  0.62042715  0.63591940  0.11246687     0.02300
C3264       C  0.62361758  0.60952502  0.11724526    -0.04400
C3265       C  0.60160139  0.59393705  0.11906134    -0.00700
C3266       C  0.57695060  0.60478825  0.11744067    -0.03200
C3267       C  0.59272124  0.67406713  0.10804582     0.36000
C3268       C  0.60413704  0.56672980  0.12322811     0.39700
C3269       C  0.64248030  0.65248982  0.11043876     0.38800
C3270       C  0.55456726  0.58868165  0.11953674     0.35700
C3271       C  0.54466570  0.65158176  0.07578082     0.36400
C3272       C  0.50284514  0.65812810  0.16677712     0.39600
N3273       N  0.66002697  0.66577335  0.10883613    -0.38400
N3274       N  0.59030858  0.69583642  0.10537331    -0.40000
N3275       N  0.60600369  0.54506457  0.12679197    -0.37800
N3276       N  0.53668154  0.57588266  0.12124258    -0.40100
N3277       N  0.56344035  0.62829273  0.17544888    -0.39900
N3278       N  0.49468152  0.65964493  0.18528525    -0.37500
N3279       N  0.48431100  0.68269001  0.06725703    -0.38600
N3280       N  0.55313996  0.65023108  0.05737888    -0.40300
C3281       C  0.36140477  0.58243674  0.13468384    -0.05200
C3282       C  0.36010739  0.57204820  0.11224458     0.09000
C3283       C  0.37139440  0.58527037  0.09368894    -0.02600
C3284       C  0.38364094  0.60899261  0.09749803    -0.00800
C3285       C  0.38463028  0.61965875  0.11994417    -0.04500
C3286       C  0.37436808  0.60555780  0.13869065     0.02600
C3287       C  0.35018776  0.54541972  0.10917188     0.09400
C3288       C  0.37109075  0.57395430  0.07083565     0.35300
C3289       C  0.37776086  0.61407996  0.16237890     0.38700
C3290       C  0.32506631  0.54080303  0.10162311    -0.04800
C3291       C  0.31498649  0.51571296  0.10192047     0.02300
C3292       C  0.32944694  0.49518028  0.11135400    -0.04400
C3293       C  0.35531010  0.50007852  0.11788282    -0.00700
C3294       C  0.36564290  0.52481629  0.11597470    -0.03200
C3295       C  0.30935443  0.56209113  0.09423051     0.36000
C3296       C  0.37143630  0.48048188  0.12799111     0.39700
C3297       C  0.28962739  0.51141588  0.09266967     0.38800
C3298       C  0.39223512  0.52942866  0.12180692     0.35700
C3299       C  0.34969989  0.56899914  0.15386318     0.36400
C3300       C  0.39750705  0.62096487  0.07880326     0.39600
N3301       N  0.26942385  0.50805021  0.08517036    -0.38400
N3302       N  0.29683021  0.57912040  0.08840238    -0.40000
N3303       N  0.38450490  0.46521761  0.13631903    -0.37800
N3304       N  0.41341785  0.53322117  0.12630658    -0.40100
N3305       N  0.37079737  0.56480875  0.05263216    -0.39900
N3306       N  0.40904313  0.63004585  0.06391540    -0.37500
N3307       N  0.38082416  0.62042796  0.18133502    -0.38600
N3308       N  0.34039787  0.55845858  0.16923809    -0.40300
C3309       C  0.40097528  0.69526354  0.01844293    -0.05200
C3310       C  0.41906835  0.70942808  0.00601280     0.09000
C3311       C  0.43736813  0.72414862  0.01786860    -0.02600
C3312       C  0.43762342  0.72475063  0.04226648    -0.00800
C3313       C  0.41932277  0.71065020  0.05502554    -0.04500
C3314       C  0.40069652  0.69614382  0.04271846     0.02600
C3315       C  0.41833437  0.70898282  0.98025639     0.09400
C3316       C  0.45573202  0.73892817  0.00480129     0.35300
C3317       C  0.38073208  0.68215529  0.05458206     0.38700
C3318       C  0.40110879  0.72492031  0.96830954    -0.04800
C3319       C  0.39888484  0.72313828  0.94411067     0.02300
C3320       C  0.41473795  0.70612794  0.93164543    -0.04400
C3321       C  0.43110619  0.68936367  0.94378903    -0.00700
C3322       C  0.43301764  0.69093475  0.96801155    -0.03200
C3323       C  0.38544546  0.74294911  0.98104181     0.36000
C3324       C  0.44416065  0.66893889  0.93160300     0.39700
C3325       C  0.37966893  0.73822125  0.93230117     0.38800
C3326       C  0.44950604  0.67347990  0.98049507     0.35700
C3327       C  0.38252465  0.67966295  0.00607220     0.36400
C3328       C  0.45601481  0.74092092  0.05397283     0.39600
N3329       N  0.36391135  0.74990263  0.92309418    -0.38400
N3330       N  0.37297548  0.75733373  0.99120972    -0.40000
N3331       N  0.45413422  0.65233522  0.92194834    -0.37800
N3332       N  0.46257332  0.65954683  0.99053582    -0.40100
N3333       N  0.47030724  0.75068579  0.99425874    -0.39900
N3334       N  0.47070755  0.75389121  0.06322264    -0.37500
N3335       N  0.36442739  0.67117612  0.06364941    -0.38600
N3336       N  0.36789590  0.66718650  0.99620625    -0.40300
C3337       C  0.53228583  0.72266935  0.25311403    -0.05200
C3338       C  0.51239097  0.74067123  0.25482421     0.09000
C3339       C  0.50812993  0.75323356  0.27606760    -0.02600
C3340       C  0.52268073  0.74669136  0.29587865    -0.00800
C3341       C  0.54169265  0.72742542  0.29457275    -0.04500
C3342       C  0.54671958  0.71594793  0.27273888     0.02600
C3343       C  0.49320374  0.74198219  0.23554004     0.09400
C3344       C  0.48770140  0.77182009  0.27774597     0.35300
C3345       C  0.56587582  0.69610869  0.27023869     0.38700
C3346       C  0.47204591  0.72550693  0.23642888    -0.04800
C3347       C  0.45804034  0.71996086  0.21628656     0.02300
C3348       C  0.46413390  0.73195108  0.19495930    -0.04400
C3349       C  0.48363010  0.75068833  0.19474610    -0.00700
C3350       C  0.49840363  0.75531254  0.21489017    -0.03200
C3351       C  0.46570333  0.71271519  0.25790703     0.36000
C3352       C  0.49000667  0.76365040  0.17344162     0.39700
C3353       C  0.43855694  0.70035243  0.21769740     0.38800
C3354       C  0.51988748  0.77267793  0.21412122     0.35700
C3355       C  0.53668277  0.70957445  0.23131132     0.36400
C3356       C  0.51631412  0.75813425  0.31794198     0.39600
N3357       N  0.42369491  0.68416660  0.21958426    -0.38400
N3358       N  0.46034124  0.70251593  0.27491815    -0.40000
N3359       N  0.49508937  0.77401026  0.15643040    -0.37800
N3360       N  0.53710924  0.78647713  0.21352384    -0.40100
N3361       N  0.47131879  0.78659333  0.27901663    -0.39900
N3362       N  0.51106040  0.76714672  0.33556767    -0.37500
N3363       N  0.58076195  0.68000947  0.26770945    -0.38600
N3364       N  0.54007065  0.69909527  0.21397064    -0.40300
C3365       C  0.35063828  0.68775332  0.22909320    -0.05200
C3366       C  0.33566177  0.66542745  0.22785653     0.09000
C3367       C  0.32865047  0.65542671  0.20613927    -0.02600
C3368       C  0.33956150  0.66561579  0.18594449    -0.00800
C3369       C  0.35865830  0.68459072  0.18780059    -0.04500
C3370       C  0.36212100  0.69738811  0.20899237     0.02600
C3371       C  0.33122566  0.65031517  0.24922620     0.09400
C3372       C  0.31183760  0.63349273  0.20470941     0.35300
C3373       C  0.37754320  0.72033499  0.21002011     0.38700
C3374       C  0.30741769  0.65067603  0.26053616    -0.04800
C3375       C  0.30413167  0.63687401  0.28121302     0.02300
C3376       C  0.32473884  0.62294224  0.29059044    -0.04400
C3377       C  0.34853236  0.62267278  0.27930718    -0.00700
C3378       C  0.35165480  0.63598438  0.25848630    -0.03200
C3379       C  0.28639182  0.66510360  0.25081355     0.36000
C3380       C  0.37003507  0.60924675  0.28947850     0.39700
C3381       C  0.27949383  0.63659679  0.29257620     0.38800
C3382       C  0.37588979  0.63474699  0.24641728     0.35700
C3383       C  0.35555462  0.69965008  0.25128155     0.36400
C3384       C  0.33225439  0.65547194  0.16356438     0.39600
N3385       N  0.25977293  0.63638737  0.30153231    -0.38400
N3386       N  0.26958282  0.67652919  0.24297248    -0.40000
N3387       N  0.38723505  0.59873488  0.29766592    -0.37800
N3388       N  0.39517568  0.63366435  0.23676330    -0.40100
N3389       N  0.29843573  0.61598301  0.20350391    -0.39900
N3390       N  0.32628883  0.64750834  0.14570105    -0.37500
N3391       N  0.38971767  0.73874423  0.21082885    -0.38600
N3392       N  0.35941055  0.70903328  0.26904943    -0.40300
loop_ 
_geom_bond_atom_site_label_1 
_geom_bond_atom_site_label_2 
_geom_bond_distance 
_geom_bond_site_symmetry_2 
_ccdc_geom_bond_type 
O1           C16   1.265       .  A
O1           Al9   1.918       .  S
C2           O12   1.263       .  A
C2            O3   1.259       .  A
C2         C3369   1.480       .  S
O3           Al5   1.905       .  S
O4            C6   1.257       .  A
O4           Al5   1.882       .  S
Al5          O13   1.916       .  S
Al5          O15   1.886       .  S
Al5          O14   1.791       .  S
C6           O19   1.264       .  A
C6         C3229   1.484       .  S
O7           C17   1.267       .  A
O7           Al9   1.940       .  S
O8           C21   1.263       .  A
O8          Al18   1.898       .  S
Al9          O22   1.937       .  S
Al9          O19   1.937       .  S
Al9          O14   1.792       .  S
O10          C17   1.255       .  A
O10         Al18   1.886       .  S
O11          C20   1.256       .  A
O11         Al18   1.893       .  S
O12         Al18   1.898       .  S
O13          C20   1.261       .  A
O14         Al18   1.781       .  S
O15          C16   1.257       .  A
C16        C3313   1.500       .  S
C17        C3348   1.501       .  S
C20        C3285   1.494       .  S
C21          O22   1.268       .  A
C21        C3257   1.489       .  S
O23          C38   1.266       .  A
O23         Al31   1.943       .  S
C24          O34   1.262       .  A
C24          O25   1.257       .  A
C24        C3145   1.475       .  S
O25         Al27   1.864       .  S
O26          C28   1.265       .  A
O26         Al27   1.920       .  S
Al27         O35   1.907       .  S
Al27         O37   1.884       .  S
Al27         O36   1.769       .  S
C28          O41   1.265       .  A
C28        C3117   1.498       .  S
O29          C39   1.264       .  A
O29         Al31   1.934       .  S
O30          C43   1.265       .  A
O30         Al40   1.918       .  S
Al31         O44   1.892       .  S
Al31         O41   1.916       .  S
Al31         O36   1.786       .  S
O32          C39   1.259       .  A
O32         Al40   1.893       .  S
O33          C42   1.260       .  A
O33         Al40   1.905       .  S
O34         Al40   1.926       .  S
O35          C42   1.260       .  A
O36         Al40   1.786       .  S
O37          C38   1.257       .  A
C38        C3173   1.491       .  S
C39        C3089   1.491       .  S
C42        C3201   1.488       .  S
C43          O44   1.264       .  A
C43        C3320   1.483       .  S
O45          C60   1.266       .  A
O45         Al53   1.904       .  S
C46          O56   1.260       .  A
C46          O47   1.264       .  A
C46        C3033   1.482       .  S
O47         Al49   1.919       .  S
O48          C50   1.256       .  A
O48         Al49   1.898       .  S
Al49         O57   1.911       .  S
Al49         O59   1.910       .  S
Al49         O58   1.784       .  S
C50          O63   1.257       .  A
C50        C2949   1.483       .  S
O51          C61   1.266       .  A
O51         Al53   1.924       .  S
O52          C65   1.262       .  A
O52         Al62   1.902       .  S
Al53         O66   1.923       .  S
Al53         O63   1.915       .  S
Al53         O58   1.793       .  S
O54          C61   1.263       .  A
O54         Al62   1.912       .  S
O55          C64   1.258       .  A
O55         Al62   1.905       .  S
O56         Al62   1.882       .  S
O57          C64   1.259       .  A
O58         Al62   1.782       .  S
O59          C60   1.265       .  A
C60        C3005   1.512       .  S
C61        C3061   1.502       .  S
C64        C3264   1.500       .  S
C65          O66   1.264       .  A
C65        C2977   1.486       .  S
O67          C82   1.263       .  A
O67         Al75   1.925       .  S
C68          O78   1.262       .  A
C68          O69   1.258       .  A
C68        C2865   1.488       .  S
O69         Al71   1.885       .  S
O70          C72   1.260       .  A
O70         Al71   1.894       .  S
Al71         O79   1.917       .  S
Al71         O81   1.889       .  S
Al71         O80   1.792       .  S
C72          O85   1.262       .  A
C72        C2893   1.489       .  S
O73          C83   1.262       .  A
O73         Al75   1.924       .  S
O74          C87   1.262       .  A
O74         Al84   1.898       .  S
Al75         O88   1.909       .  S
Al75         O85   1.913       .  S
Al75         O80   1.800       .  S
O76          C83   1.255       .  A
O76         Al84   1.881       .  S
O77          C86   1.256       .  A
O77         Al84   1.887       .  S
O78         Al84   1.917       .  S
O79          C86   1.263       .  A
O80         Al84   1.794       .  S
O81          C82   1.256       .  A
C82        C2921   1.495       .  S
C83        C2837   1.499       .  S
C86        C3180   1.497       .  S
C87          O88   1.263       .  A
C87        C3012   1.488       .  S
O89         C104   1.261       .  A
O89         Al97   1.890       .  S
C90         O100   1.259       .  A
C90          O91   1.268       .  A
C90        C2781   1.490       .  S
O91         Al93   1.934       .  S
O92          C94   1.256       .  A
O92         Al93   1.876       .  S
Al93        O101   1.900       .  S
Al93        O103   1.932       .  S
Al93        O102   1.779       .  S
C94         O107   1.268       .  A
C94        C2697   1.488       .  S
O95         C105   1.262       .  A
O95         Al97   1.910       .  S
O96         C109   1.260       .  A
O96        Al106   1.887       .  S
Al97        O110   1.955       .  S
Al97        O107   1.952       .  S
Al97        O102   1.783       .  S
O98         C105   1.266       .  A
O98        Al106   1.929       .  S
O99         C108   1.264       .  A
O99        Al106   1.927       .  S
O100       Al106   1.873       .  S
O101        C108   1.259       .  A
O102       Al106   1.774       .  S
O103        C104   1.267       .  A
C104       C2760   1.493       .  S
C105       C2809   1.497       .  S
C108       C2984   1.500       .  S
C109        O110   1.272       .  A
C109       C2732   1.500       .  S
O111        C126   1.268       .  A
O111       Al119   1.932       .  S
C112        O122   1.268       .  A
C112        O113   1.261       .  A
C112       C2613   1.492       .  S
O113       Al115   1.879       .  S
O114        C116   1.261       .  A
O114       Al115   1.912       .  S
Al115       O123   1.923       .  S
Al115       O125   1.887       .  S
Al115       O124   1.778       .  S
C116        O129   1.263       .  A
C116       C2641   1.495       .  S
O117        C127   1.263       .  A
O117       Al119   1.924       .  S
O118        C131   1.265       .  A
O118       Al128   1.918       .  S
Al119       O132   1.887       .  S
Al119       O129   1.921       .  S
Al119       O124   1.786       .  S
O120        C127   1.260       .  A
O120       Al128   1.899       .  S
O121        C130   1.259       .  A
O121       Al128   1.912       .  S
O122       Al128   1.936       .  S
O123        C130   1.261       .  A
O124       Al128   1.783       .  S
O125        C126   1.263       .  A
C126       C2669   1.498       .  S
C127       C2592   1.493       .  S
C130       C2928   1.512       .  S
C131        O132   1.260       .  A
C131       C2753   1.495       .  S
O133        C148   1.263       .  A
O133       Al141   1.894       .  S
C134        O144   1.260       .  A
C134        O135   1.267       .  A
C134       C2564   1.479       .  S
O135       Al137   1.928       .  S
O136        C138   1.254       .  A
O136       Al137   1.874       .  S
Al137       O145   1.900       .  S
Al137       O147   1.932       .  S
Al137       O146   1.775       .  S
C138        O151   1.268       .  A
C138       C2473   1.499       .  S
O139        C149   1.265       .  A
O139       Al141   1.918       .  S
O140        C153   1.258       .  A
O140       Al150   1.881       .  S
Al141       O154   1.963       .  S
Al141       O151   1.960       .  S
Al141       O146   1.785       .  S
O142        C149   1.265       .  A
O142       Al150   1.927       .  S
O143        C152   1.261       .  A
O143       Al150   1.925       .  S
O144       Al150   1.876       .  S
O145        C152   1.257       .  A
O146       Al150   1.770       .  S
O147        C148   1.268       .  A
C148       C2501   1.482       .  S
C149       C2536   1.488       .  S
C152       C2725   1.485       .  S
C153        O154   1.273       .  A
C153       C3292   1.511       .  S
O155        C170   1.264       .  A
O155       Al163   1.913       .  S
C156        O166   1.259       .  A
C156        O157   1.262       .  A
C156       C2445   1.470       .  S
O157       Al159   1.906       .  S
O158        C160   1.257       .  A
O158       Al159   1.884       .  S
Al159       O167   1.896       .  S
Al159       O169   1.900       .  S
Al159       O168   1.786       .  S
C160        O173   1.262       .  A
C160       C2417   1.508       .  S
O161        C171   1.263       .  A
O161       Al163   1.913       .  S
O162        C175   1.262       .  A
O162       Al172   1.899       .  S
Al163       O176   1.925       .  S
Al163       O173   1.920       .  S
Al163       O168   1.789       .  S
O164        C171   1.260       .  A
O164       Al172   1.907       .  S
O165        C174   1.258       .  A
O165       Al172   1.902       .  S
O166       Al172   1.893       .  S
O167        C174   1.257       .  A
O168       Al172   1.787       .  S
O169        C170   1.261       .  A
C170       C3208   1.488       .  S
C171       C2389   1.485       .  S
C174       C2676   1.479       .  S
C175        O176   1.265       .  A
C175       C2508   1.501       .  S
O177        C192   1.262       .  A
O177       Al185   1.890       .  S
C178        O188   1.257       .  A
C178        O179   1.264       .  A
C178       C2788   1.482       .  S
O179       Al181   1.925       .  S
O180        C182   1.256       .  A
O180       Al181   1.884       .  S
Al181       O189   1.897       .  S
Al181       O191   1.925       .  S
Al181       O190   1.780       .  S
C182        O195   1.266       .  A
C182       C2284   1.504       .  S
O183        C193   1.264       .  A
O183       Al185   1.911       .  S
O184        C197   1.259       .  A
O184       Al194   1.890       .  S
Al185       O198   1.953       .  S
Al185       O195   1.948       .  S
Al185       O190   1.790       .  S
O186        C193   1.266       .  A
O186       Al194   1.926       .  S
O187        C196   1.262       .  A
O187       Al194   1.921       .  S
O188       Al194   1.866       .  S
O189        C196   1.258       .  A
O190       Al194   1.768       .  S
O191        C192   1.267       .  A
C192       C2361   1.475       .  S
C193       C3068   1.486       .  S
C196       C2340   1.489       .  S
C197        O198   1.269       .  A
C197       C2312   1.512       .  S
O199        C214   1.262       .  A
O199       Al207   1.907       .  S
C200        O210   1.262       .  A
C200        O201   1.263       .  A
C200       C2620   1.473       .  S
O201       Al203   1.908       .  S
O202        C204   1.257       .  A
O202       Al203   1.879       .  S
Al203       O211   1.891       .  S
Al203       O213   1.904       .  S
Al203       O212   1.779       .  S
C204        O217   1.262       .  A
C204       C2900   1.489       .  S
O205        C215   1.264       .  A
O205       Al207   1.924       .  S
O206        C219   1.262       .  A
O206       Al216   1.888       .  S
Al207       O220   1.929       .  S
Al207       O217   1.924       .  S
Al207       O212   1.792       .  S
O208        C215   1.262       .  A
O208       Al216   1.912       .  S
O209        C218   1.259       .  A
O209       Al216   1.916       .  S
O210       Al216   1.901       .  S
O211        C218   1.256       .  A
O212       Al216   1.789       .  S
O213        C214   1.260       .  A
C214       C2221   1.482       .  S
C215       C2193   1.497       .  S
C218       C2256   1.485       .  S
C219        O220   1.267       .  A
C219       C2368   1.490       .  S
O221        C236   1.266       .  A
O221       Al229   1.917       .  S
C222        O232   1.261       .  A
C222        O223   1.264       .  A
C222       C3040   1.482       .  S
O223       Al225   1.922       .  S
O224        C226   1.254       .  A
O224       Al225   1.875       .  S
Al225       O233   1.908       .  S
Al225       O235   1.907       .  S
Al225       O234   1.787       .  S
C226        O239   1.262       .  A
C226       C2109   1.480       .  S
O227        C237   1.266       .  A
O227       Al229   1.933       .  S
O228        C241   1.264       .  A
O228       Al238   1.906       .  S
Al229       O242   1.934       .  S
Al229       O239   1.931       .  S
Al229       O234   1.788       .  S
O230        C237   1.260       .  A
O230       Al238   1.905       .  S
O231        C240   1.259       .  A
O231       Al238   1.911       .  S
O232       Al238   1.886       .  S
O233        C240   1.259       .  A
O234       Al238   1.779       .  S
O235        C236   1.263       .  A
C236       C2165   1.514       .  S
C237       C3341   1.505       .  S
C240       C2305   1.497       .  S
C241        O242   1.267       .  A
C241       C2137   1.485       .  S
O243        C258   1.263       .  A
O243       Al251   1.915       .  S
C244        O254   1.262       .  A
C244        O245   1.265       .  A
C244       C2872   1.479       .  S
O245       Al247   1.917       .  S
O246        C248   1.261       .  A
O246       Al247   1.896       .  S
Al247       O255   1.905       .  S
Al247       O257   1.892       .  S
Al247       O256   1.781       .  S
C248        O261   1.262       .  A
C248       C3124   1.507       .  S
O249        C259   1.262       .  A
O249       Al251   1.917       .  S
O250        C263   1.264       .  A
O250       Al260   1.898       .  S
Al251       O264   1.931       .  S
Al251       O261   1.921       .  S
Al251       O256   1.790       .  S
O252        C259   1.260       .  A
O252       Al260   1.914       .  S
O253        C262   1.259       .  A
O253       Al260   1.915       .  S
O254       Al260   1.901       .  S
O255        C262   1.258       .  A
O256       Al260   1.788       .  S
O257        C258   1.261       .  A
C258       C2081   1.491       .  S
C259       C2053   1.498       .  S
C262       C2228   1.496       .  S
C263        O264   1.268       .  A
C263       C2172   1.490       .  S
O265        C280   1.262       .  A
O265       Al273   1.894       .  S
C266        O276   1.258       .  A
C266        O267   1.264       .  A
C266       C3376   1.470       .  S
O267       Al269   1.919       .  S
O268        C270   1.257       .  A
O268       Al269   1.889       .  S
Al269       O277   1.912       .  S
Al269       O279   1.911       .  S
Al269       O278   1.781       .  S
C270        O283   1.265       .  A
C270       C1976   1.513       .  S
O271        C281   1.265       .  A
O271       Al273   1.927       .  S
O272        C285   1.263       .  A
O272       Al282   1.893       .  S
Al273       O286   1.942       .  S
Al273       O283   1.943       .  S
Al273       O278   1.790       .  S
O274        C281   1.260       .  A
O274       Al282   1.894       .  S
O275        C284   1.258       .  A
O275       Al282   1.910       .  S
O276       Al282   1.877       .  S
O277        C284   1.259       .  A
O278       Al282   1.781       .  S
O279        C280   1.264       .  A
C280       C2025   1.489       .  S
C281       C2529   1.495       .  S
C284       C2144   1.512       .  S
C285        O286   1.269       .  A
C285       C1997   1.507       .  S
O287        C302   1.261       .  A
O287       Al295   1.922       .  S
C288        O298   1.258       .  A
C288        O289   1.262       .  A
C288       C3152   1.467       .  S
O289       Al291   1.913       .  S
O290        C292   1.261       .  A
O290       Al291   1.885       .  S
Al291       O299   1.910       .  S
Al291       O301   1.892       .  S
Al291       O300   1.784       .  S
C292        O305   1.266       .  A
C292       C2424   1.511       .  S
O293        C303   1.260       .  A
O293       Al295   1.924       .  S
O294        C307   1.262       .  A
O294       Al304   1.879       .  S
Al295       O308   1.927       .  S
Al295       O305   1.923       .  S
Al295       O300   1.788       .  S
O296        C303   1.254       .  A
O296       Al304   1.883       .  S
O297        C306   1.260       .  A
O297       Al304   1.910       .  S
O298       Al304   1.891       .  S
O299        C306   1.262       .  A
O300       Al304   1.786       .  S
O301        C302   1.256       .  A
C302       C1948   1.494       .  S
C303       C1920   1.507       .  S
C306       C2088   1.510       .  S
C307        O308   1.270       .  A
C307       C2032   1.488       .  S
O309        C324   1.261       .  A
O309       Al317   1.894       .  S
C310        O320   1.261       .  A
C310        O311   1.264       .  A
C310       C2557   1.500       .  S
O311       Al313   1.923       .  S
O312        C314   1.259       .  A
O312       Al313   1.885       .  S
Al313       O321   1.905       .  S
Al313       O323   1.918       .  S
Al313       O322   1.781       .  S
C314        O327   1.269       .  A
C314       C1857   1.497       .  S
O315        C325   1.261       .  A
O315       Al317   1.912       .  S
O316        C329   1.259       .  A
O316       Al326   1.887       .  S
Al317       O330   1.950       .  S
Al317       O327   1.951       .  S
Al317       O322   1.786       .  S
O318        C325   1.262       .  A
O318       Al326   1.913       .  S
O319        C328   1.263       .  A
O319       Al326   1.918       .  S
O320       Al326   1.893       .  S
O321        C328   1.261       .  A
O322       Al326   1.781       .  S
O323        C324   1.263       .  A
C324       C1892   1.495       .  S
C325       C2816   1.482       .  S
C328       C2004   1.492       .  S
C329        O330   1.270       .  A
C329       C2333   1.493       .  S
O331        C346   1.267       .  A
O331       Al339   1.923       .  S
C332        O342   1.264       .  A
C332        O333   1.261       .  A
C332       C2452   1.470       .  S
O333       Al335   1.882       .  S
O334        C336   1.259       .  A
O334       Al335   1.899       .  S
Al335       O343   1.911       .  S
Al335       O345   1.899       .  S
Al335       O344   1.783       .  S
C336        O349   1.266       .  A
C336       C2648   1.500       .  S
O337        C347   1.264       .  A
O337       Al339   1.933       .  S
O338        C351   1.263       .  A
O338       Al348   1.914       .  S
Al339       O352   1.892       .  S
Al339       O349   1.931       .  S
Al339       O344   1.792       .  S
O340        C347   1.256       .  A
O340       Al348   1.881       .  S
O341        C350   1.260       .  A
O341       Al348   1.914       .  S
O342       Al348   1.917       .  S
O343        C350   1.258       .  A
O344       Al348   1.786       .  S
O345        C346   1.265       .  A
C346       C2249   1.496       .  S
C347       C1836   1.506       .  S
C350       C1941   1.505       .  S
C351        O352   1.260       .  A
C351       C1885   1.485       .  S
O353        C368   1.259       .  A
O353       Al361   1.893       .  S
C354        O364   1.262       .  A
C354        O355   1.265       .  A
C354       C1808   1.476       .  S
O355       Al357   1.916       .  S
O356        C358   1.257       .  A
O356       Al357   1.879       .  S
Al357       O365   1.908       .  S
Al357       O367   1.891       .  S
Al357       O366   1.793       .  S
C358        O371   1.265       .  A
C358       C2200   1.506       .  S
O359        C369   1.260       .  A
O359       Al361   1.923       .  S
O360        C373   1.264       .  A
O360       Al370   1.889       .  S
Al361       O374   1.936       .  S
Al361       O371   1.929       .  S
Al361       O366   1.796       .  S
O362        C369   1.254       .  A
O362       Al370   1.883       .  S
O363        C372   1.255       .  A
O363       Al370   1.899       .  S
O364       Al370   1.888       .  S
O365        C372   1.258       .  A
O366       Al370   1.783       .  S
O367        C368   1.259       .  A
C368       C1745   1.480       .  S
C369       C1773   1.493       .  S
C372       C1717   1.509       .  S
C373        O374   1.270       .  A
C373       C1689   1.500   1_655  S
O375        C390   1.260       .  A
O375       Al383   1.909       .  S
C376        O386   1.267       .  A
C376        O377   1.267       .  A
C376       C1577   1.501       .  S
O377       Al379   1.916       .  S
O378        C380   1.259       .  A
O378       Al379   1.884       .  S
Al379       O387   1.902       .  S
Al379       O389   1.907       .  S
Al379       O388   1.775       .  S
C380        O393   1.264       .  A
C380       C1605   1.495       .  S
O381        C391   1.260       .  A
O381       Al383   1.921       .  S
O382        C395   1.267       .  A
O382       Al392   1.896       .  S
Al383       O396   1.922       .  S
Al383       O393   1.923       .  S
Al383       O388   1.789       .  S
O384        C391   1.257       .  A
O384       Al392   1.905       .  S
O385        C394   1.259       .  A
O385       Al392   1.920       .  S
O386       Al392   1.911       .  S
O387        C394   1.258       .  A
O388       Al392   1.792       .  S
O389        C390   1.260       .  A
C390       C1633   1.492       .  S
C391       C2277   1.489       .  S
C394       C1668   1.507       .  S
C395        O396   1.269       .  A
C395       C1752   1.504       .  S
O397        C412   1.261       .  A
O397       Al405   1.888       .  S
C398        O408   1.260       .  A
C398        O399   1.266       .  A
C398       C1549   1.486       .  S
O399       Al401   1.925       .  S
O400        C402   1.257       .  A
O400       Al401   1.894       .  S
Al401       O409   1.908       .  S
Al401       O411   1.916       .  S
Al401       O410   1.785       .  S
C402        O415   1.261       .  A
C402       C1913   1.492       .  S
O403        C413   1.265       .  A
O403       Al405   1.921       .  S
O404        C417   1.263       .  A
O404       Al414   1.896       .  S
Al405       O418   1.926       .  S
Al405       O415   1.923       .  S
Al405       O410   1.793       .  S
O406        C413   1.262       .  A
O406       Al414   1.911       .  S
O407        C416   1.260       .  A
O407       Al414   1.923       .  S
O408       Al414   1.875       .  S
O409        C416   1.259       .  A
O410       Al414   1.777       .  S
O411        C412   1.266       .  A
C412       C1493   1.498       .  S
C413       C1521   1.503       .  S
C416       C1472   1.501       .  S
C417        O418   1.266       .  A
C417       C1444   1.488       .  S
O419        C434   1.261       .  A
O419       Al427   1.915       .  S
C420        O430   1.265       .  A
C420        O421   1.262       .  A
C420       C1360   1.485       .  S
O421       Al423   1.901       .  S
O422        C424   1.262       .  A
O422       Al423   1.897       .  S
Al423       O431   1.905       .  S
Al423       O433   1.896       .  S
Al423       O432   1.782       .  S
C424        O437   1.262       .  A
C424       C1325   1.491       .  S
O425        C435   1.261       .  A
O425       Al427   1.920       .  S
O426        C439   1.265       .  A
O426       Al436   1.903       .  S
Al427       O440   1.910       .  S
Al427       O437   1.908       .  S
Al427       O432   1.791       .  S
O428        C435   1.260       .  A
O428       Al436   1.912       .  S
O429        C438   1.262       .  A
O429       Al436   1.924       .  S
O430       Al436   1.921       .  S
O431        C438   1.260       .  A
O432       Al436   1.791       .  S
O433        C434   1.258       .  A
C434       C1381   1.497       .  S
C435       C1969   1.497       .  S
C438       C1409   1.501       .  S
C439        O440   1.264       .  A
C439       C1500   1.492       .  S
O441        C456   1.260       .  A
O441       Al449   1.891       .  S
C442        O452   1.258       .  A
C442        O443   1.268       .  A
C442       C1276   1.478       .  S
O443       Al445   1.942       .  S
O444        C446   1.255       .  A
O444       Al445   1.880       .  S
Al445       O453   1.898       .  S
Al445       O455   1.917       .  S
Al445       O454   1.782       .  S
C446        O459   1.263       .  A
C446       C2060   1.482       .  S
O447        C457   1.263       .  A
O447       Al449   1.921       .  S
O448        C461   1.262       .  A
O448       Al458   1.884       .  S
Al449       O462   1.949       .  S
Al449       O459   1.934       .  S
Al449       O454   1.787       .  S
O450        C457   1.260       .  A
O450       Al458   1.906       .  S
O451        C460   1.257       .  A
O451       Al458   1.905       .  S
O452       Al458   1.867       .  S
O453        C460   1.256       .  A
O454       Al458   1.776       .  S
O455        C456   1.265       .  A
C456       C1241   1.479       .  S
C457       C1297   1.494       .  S
C460       C1437   1.503       .  S
C461        O462   1.272       .  A
C461       C1724   1.499       .  S
O463        C478   1.258       .  A
O463       Al471   1.893       .  S
C464        O474   1.265       .  A
C464        O465   1.266       .  A
C464       C1185   1.481       .  S
O465       Al467   1.915       .  S
O466        C468   1.257       .  A
O466       Al467   1.885       .  S
Al467       O475   1.910       .  S
Al467       O477   1.905       .  S
Al467       O476   1.784       .  S
C468        O481   1.263       .  A
C468       C1213   1.499       .  S
O469        C479   1.262       .  A
O469       Al471   1.925       .  S
O470        C483   1.268       .  A
O470       Al480   1.898       .  S
Al471       O484   1.933       .  S
Al471       O481   1.918       .  S
Al471       O476   1.790       .  S
O472        C479   1.256       .  A
O472       Al480   1.900       .  S
O473        C482   1.256       .  A
O473       Al480   1.907       .  S
O474       Al480   1.906       .  S
O475        C482   1.258       .  A
O476       Al480   1.782       .  S
O477        C478   1.260       .  A
C478       C1661   1.477       .  S
C479       C2116   1.493       .  S
C482       C1388   1.513       .  S
C483        O484   1.270       .  A
C483       C1248   1.490       .  S
O485        C500   1.263       .  A
O485       Al493   1.904       .  S
C486        O496   1.262       .  A
C486        O487   1.261       .  A
C486       C1157   1.494       .  S
O487       Al489   1.908       .  S
O488        C490   1.256       .  A
O488       Al489   1.871       .  S
Al489       O497   1.908       .  S
Al489       O499   1.913       .  S
Al489       O498   1.785       .  S
C490        O503   1.269       .  A
C490       C1829   1.492       .  S
O491        C501   1.263       .  A
O491       Al493   1.921       .  S
O492        C505   1.260       .  A
O492       Al502   1.890       .  S
Al493       O506   1.958       .  S
Al493       O503   1.951       .  S
Al493       O498   1.787       .  S
O494        C501   1.262       .  A
O494       Al502   1.914       .  S
O495        C504   1.262       .  A
O495       Al502   1.913       .  S
O496       Al502   1.898       .  S
O497        C504   1.262       .  A
O498       Al502   1.776       .  S
O499        C500   1.262       .  A
C500       C1101   1.502       .  S
C501       C1136   1.488       .  S
C504       C1696   1.499       .  S
C505        O506   1.271       .  A
C505       C1465   1.500   1_545  S
O507        C522   1.262       .  A
O507       Al515   1.906       .  S
C508        O518   1.260       .  A
C508        O509   1.263       .  A
C508       C1080   1.477       .  S
O509       Al511   1.906       .  S
O510        C512   1.255       .  A
O510       Al511   1.882       .  S
Al511       O519   1.897       .  S
Al511       O521   1.898       .  S
Al511       O520   1.791       .  S
C512        O525   1.259       .  A
C512       C1045   1.483       .  S
O513        C523   1.260       .  A
O513       Al515   1.916       .  S
O514        C527   1.260       .  A
O514       Al524   1.889       .  S
Al515       O528   1.920       .  S
Al515       O525   1.921       .  S
Al515       O520   1.801       .  S
O516        C523   1.259       .  A
O516       Al524   1.911       .  S
O517        C526   1.258       .  A
O517       Al524   1.918       .  S
O518       Al524   1.888       .  S
O519        C526   1.255       .  A
O520       Al524   1.798       .  S
O521        C522   1.260       .  A
C522       C1416   1.487   1_545  S
C523       C1864   1.488       .  S
C526       C1640   1.490       .  S
C527        O528   1.264       .  A
C527       C1108   1.474       .  S
O529        C544   1.264       .  A
O529       Al537   1.919       .  S
C530        O540   1.264       .  A
C530        O531   1.264       .  A
C530       C1584   1.480       .  S
O531       Al533   1.913       .  S
O532        C534   1.261       .  A
O532       Al533   1.899       .  S
Al533       O541   1.898       .  S
Al533       O543   1.895       .  S
Al533       O542   1.779       .  S
C534        O547   1.262       .  A
C534       C1220   1.498       .  S
O535        C545   1.263       .  A
O535       Al537   1.918       .  S
O536        C549   1.262       .  A
O536       Al546   1.892       .  S
Al537       O550   1.925       .  S
Al537       O547   1.914       .  S
Al537       O542   1.789       .  S
O538        C545   1.261       .  A
O538       Al546   1.913       .  S
O539        C548   1.260       .  A
O539       Al546   1.921       .  S
O540       Al546   1.912       .  S
O541        C548   1.258       .  A
O542       Al546   1.787       .  S
O543        C544   1.261       .  A
C544        C961   1.499       .  S
C545       C2704   1.505       .  S
C548        C989   1.487       .  S
C549        O550   1.266       .  A
C549       C1024   1.477       .  S
O551        C566   1.264       .  A
O551       Al559   1.898       .  S
C552        O562   1.255       .  A
C552        O553   1.261       .  A
C552       C1801   1.471       .  S
O553       Al555   1.916       .  S
O554        C556   1.255       .  A
O554       Al555   1.879       .  S
Al555       O563   1.892       .  S
Al555       O565   1.924       .  S
Al555       O564   1.783       .  S
C556        O569   1.267       .  A
C556       C2585   1.492       .  S
O557        C567   1.264       .  A
O557       Al559   1.904       .  S
O558        C571   1.255       .  A
O558       Al568   1.884       .  S
Al559       O572   1.953       .  S
Al559       O569   1.953       .  S
Al559       O564   1.789       .  S
O560        C567   1.268       .  A
O560       Al568   1.928       .  S
O561        C570   1.261       .  A
O561       Al568   1.918       .  S
O562       Al568   1.865       .  S
O563        C570   1.256       .  A
O564       Al568   1.777       .  S
O565        C566   1.267       .  A
C566       C1017   1.495       .  S
C567       C1304   1.488       .  S
C570        C933   1.480       .  S
C571        O572   1.268       .  A
C571        C905   1.520   1_545  S
O573        C588   1.262       .  A
O573       Al581   1.914       .  S
C574        O584   1.262       .  A
C574        O575   1.266       .  A
C574       C1192   1.482       .  S
O575       Al577   1.923       .  S
O576        C578   1.258       .  A
O576       Al577   1.884       .  S
Al577       O585   1.901       .  S
Al577       O587   1.906       .  S
Al577       O586   1.774       .  S
C578        O591   1.264       .  A
C578       C1332   1.494       .  S
O579        C589   1.264       .  A
O579       Al581   1.928       .  S
O580        C593   1.265       .  A
O580       Al590   1.890       .  S
Al581       O594   1.931       .  S
Al581       O591   1.925       .  S
Al581       O586   1.786       .  S
O582        C589   1.260       .  A
O582       Al590   1.909       .  S
O583        C592   1.262       .  A
O583       Al590   1.925       .  S
O584       Al590   1.902       .  S
O585        C592   1.258       .  A
O586       Al590   1.782       .  S
O587        C588   1.260       .  A
C588        C849   1.485       .  S
C589       C2956   1.503       .  S
C592        C968   1.511       .  S
C593        O594   1.270       .  A
C593        C877   1.492       .  S
O595        C610   1.259       .  A
O595       Al603   1.894       .  S
C596        O606   1.264       .  A
C596        O597   1.265       .  A
C596       C1269   1.489       .  S
O597       Al599   1.914       .  S
O598        C600   1.258       .  A
O598       Al599   1.891       .  S
Al599       O607   1.913       .  S
Al599       O609   1.902       .  S
Al599       O608   1.795       .  S
C600        O613   1.262       .  A
C600       C2844   1.500       .  S
O601        C611   1.260       .  A
O601       Al603   1.923       .  S
O602        C615   1.265       .  A
O602       Al612   1.894       .  S
Al603       O616   1.928       .  S
Al603       O613   1.917       .  S
Al603       O608   1.797       .  S
O604        C611   1.255       .  A
O604       Al612   1.889       .  S
O605        C614   1.254       .  A
O605       Al612   1.897       .  S
O606       Al612   1.895       .  S
O607        C614   1.258       .  A
O608       Al612   1.790       .  S
O609        C610   1.260       .  A
C610        C884   1.492       .  S
C611       C1528   1.492       .  S
C614        C912   1.497       .  S
C615        O616   1.268       .  A
C615        C828   1.505       .  S
O617        C632   1.260       .  A
O617       Al625   1.906       .  S
C618        O628   1.263       .  A
C618        O619   1.269       .  A
C618       C1353   1.477       .  S
O619       Al621   1.927       .  S
O620        C622   1.258       .  A
O620       Al621   1.884       .  S
Al621       O629   1.907       .  S
Al621       O631   1.899       .  S
Al621       O630   1.783       .  S
C622        O635   1.263       .  A
C622       C1052   1.485       .  S
O623        C633   1.260       .  A
O623       Al625   1.923       .  S
O624        C637   1.264       .  A
O624       Al634   1.878       .  S
Al625       O638   1.938       .  S
Al625       O635   1.922       .  S
Al625       O630   1.793       .  S
O626        C633   1.256       .  A
O626       Al634   1.906       .  S
O627        C636   1.257       .  A
O627       Al634   1.917       .  S
O628       Al634   1.889       .  S
O629        C636   1.256       .  A
O630       Al634   1.789       .  S
O631        C632   1.259       .  A
C632        C765   1.488       .  S
C633       C3236   1.501       .  S
C636        C856   1.498       .  S
C637        O638   1.272       .  A
C637        C793   1.484       .  S
O639        C654   1.257       .  A
O639       Al647   1.876       .  S
C640        O650   1.261       .  A
C640        O641   1.266       .  A
C640       C1556   1.485       .  S
O641       Al643   1.924       .  S
O642        C644   1.255       .  A
O642       Al643   1.872       .  S
Al643       O651   1.901       .  S
Al643       O653   1.921       .  S
Al643       O652   1.778       .  S
C644        O657   1.268       .  A
C644       C3096   1.502       .  S
O645        C655   1.265       .  A
O645       Al647   1.918       .  S
O646        C659   1.258       .  A
O646       Al656   1.880       .  S
Al647       O660   1.952       .  S
Al647       O657   1.956       .  S
Al647       O652   1.787       .  S
O648        C655   1.266       .  A
O648       Al656   1.924       .  S
O649        C658   1.261       .  A
O649       Al656   1.918       .  S
O650       Al656   1.879       .  S
O651        C658   1.258       .  A
O652       Al656   1.770       .  S
O653        C654   1.265       .  A
C654        C800   1.469       .  S
C655       C1129   1.496       .  S
C658        C821   1.509       .  S
C659        O660   1.271       .  A
C659        C744   1.494       .  S
O661        C676   1.259       .  A
O661       Al669   1.909       .  S
C662        O672   1.262       .  A
C662        O663   1.262       .  A
C662       C1073   1.491       .  S
O663       Al665   1.905       .  S
O664        C666   1.259       .  A
O664       Al665   1.884       .  S
Al665       O673   1.898       .  S
Al665       O675   1.893       .  S
Al665       O674   1.780       .  S
C666        O679   1.266       .  A
C666       C1612   1.487       .  S
O667        C677   1.260       .  A
O667       Al669   1.916       .  S
O668        C681   1.262       .  A
O668       Al678   1.885       .  S
Al669       O682   1.918       .  S
Al669       O679   1.938       .  S
Al669       O674   1.792       .  S
O670        C677   1.258       .  A
O670       Al678   1.905       .  S
O671        C680   1.264       .  A
O671       Al678   1.936       .  S
O672       Al678   1.903       .  S
O673        C680   1.259       .  A
O674       Al678   1.788       .  S
O675        C676   1.257       .  A
C676        C996   1.490       .  S
C677       C2480   1.488       .  S
C680        C772   1.496       .  S
C681        O682   1.266       .  A
C681        C709   1.470       .  S
O683        C698   1.263       .  A
O683       Al691   1.886       .  S
C684        O694   1.258       .  A
C684        O685   1.266       .  A
C684       C1164   1.478       .  S
O685       Al687   1.927       .  S
O686        C688   1.255       .  A
O686       Al687   1.877       .  S
Al687       O695   1.892       .  S
Al687       O697   1.929       .  S
Al687       O696   1.777       .  S
C688        O701   1.265       .  A
C688       C2396   1.485       .  S
O689        C699   1.261       .  A
O689       Al691   1.900       .  S
O690        C703   1.258       .  A
O690       Al700   1.884       .  S
Al691       O704   1.953       .  S
Al691       O701   1.940       .  S
Al691       O696   1.781       .  S
O692        C699   1.265       .  A
O692       Al700   1.926       .  S
O693        C702   1.261       .  A
O693       Al700   1.920       .  S
O694       Al700   1.873       .  S
O695        C702   1.256       .  A
O696       Al700   1.770       .  S
O697        C698   1.268       .  A
C698        C716   1.489       .  S
C699       C1780   1.479       .  S
C702        C737   1.480       .  S
C703        O704   1.270       .  A
C703        C940   1.497       .  S
C705        C706   1.411       .  A
C705        C710   1.409       .  A
C705        C723   1.450       .  S
C706        C711   1.490   1_554  S
C706        C707   1.410       .  A
C707        C708   1.407       .  A
C707        C712   1.451       .  S
C708        C709   1.410       .  A
C708        C724   1.451       .  S
C709        C710   1.409       .  A
C710        C713   1.451       .  S
C711        C714   1.408       .  A
C711        C718   1.407       .  A
C712        N729   1.157       .  T
C713        N731   1.157       .  T
C714        C715   1.410       .  A
C714        C719   1.451       .  S
C715        C716   1.419       .  A
C715        C721   1.451       .  S
C716        C717   1.419       .  A
C717        C718   1.408       .  A
C717        C720   1.452       .  S
C718        C722   1.451       .  S
C719        N726   1.157       .  T
C720        N727   1.157       .  T
C721        N725   1.157       .  T
C722        N728   1.157       .  T
C723        N732   1.157       .  T
C724        N730   1.157       .  T
C733        C734   1.412       .  A
C733        C738   1.409       .  A
C733        C751   1.452       .  S
C734        C739   1.500       .  S
C734        C735   1.414       .  A
C735        C736   1.413       .  A
C735        C740   1.450       .  S
C736        C737   1.410       .  A
C736        C752   1.450       .  S
C737        C738   1.413       .  A
C738        C741   1.452       .  S
C739        C742   1.413       .  A
C739        C746   1.410       .  A
C740        N757   1.157       .  T
C741        N759   1.157       .  T
C742        C743   1.414   1_545  A
C742        C747   1.450       .  S
C743        C744   1.416       .  A
C743        C749   1.451       .  S
C744        C745   1.421       .  A
C745        C746   1.408   1_565  A
C745        C748   1.453       .  S
C746        C750   1.453       .  S
C747        N754   1.157       .  T
C748        N755   1.157       .  T
C749        N753   1.157       .  T
C750        N756   1.157       .  T
C751        N760   1.157       .  T
C752        N758   1.157       .  T
C761        C762   1.413       .  A
C761        C766   1.414       .  A
C761        C779   1.450       .  S
C762        C767   1.506       .  S
C762        C763   1.413       .  A
C763        C764   1.414   1_545  A
C763        C768   1.450       .  S
C764        C765   1.413       .  A
C764        C780   1.451       .  S
C765        C766   1.414   1_565  A
C766        C769   1.451       .  S
C767        C770   1.413       .  A
C767        C774   1.413       .  A
C768        N785   1.157       .  T
C769        N787   1.157       .  T
C770        C771   1.417       .  A
C770        C775   1.450       .  S
C771        C772   1.417       .  A
C771        C777   1.451       .  S
C772        C773   1.417       .  A
C773        C774   1.412       .  A
C773        C776   1.451       .  S
C774        C778   1.452       .  S
C775        N782   1.157       .  T
C776        N783   1.157       .  T
C777        N781   1.157       .  T
C778        N784   1.157       .  T
C779        N788   1.157       .  T
C780        N786   1.157       .  T
C789        C790   1.411       .  A
C789        C794   1.410       .  A
C789        C807   1.451       .  S
C790        C795   1.493   1_554  S
C790        C791   1.409       .  A
C791        C792   1.407       .  A
C791        C796   1.452       .  S
C792        C793   1.417       .  A
C792        C808   1.452       .  S
C793        C794   1.415       .  A
C794        C797   1.451       .  S
C795        C798   1.413       .  A
C795        C802   1.412       .  A
C796        N813   1.157   1_554  T
C797        N815   1.157       .  T
C798        C799   1.408       .  A
C798        C803   1.451       .  S
C799        C800   1.408       .  A
C799        C805   1.451       .  S
C800        C801   1.410       .  A
C801        C802   1.408       .  A
C801        C804   1.452       .  S
C802        C806   1.450       .  S
C803        N810   1.157       .  T
C804        N811   1.157       .  T
C805        N809   1.157       .  T
C806        N812   1.157       .  T
C807        N816   1.157   1_554  T
C808        N814   1.157       .  T
C817        C818   1.409       .  A
C817        C822   1.411       .  A
C817        C835   1.453       .  S
C818        C823   1.502       .  S
C818        C819   1.408       .  A
C819        C820   1.417       .  A
C819        C824   1.451       .  S
C820        C821   1.425       .  A
C820        C836   1.450       .  S
C821        C822   1.425       .  A
C822        C825   1.452       .  S
C823        C826   1.409       .  A
C823        C830   1.409       .  A
C824        N841   1.157       .  T
C825        N843   1.157       .  T
C826        C827   1.413       .  A
C826        C831   1.452       .  S
C827        C828   1.424   1_455  A
C827        C833   1.450       .  S
C828        C829   1.420   1_655  A
C829        C830   1.413       .  A
C829        C832   1.452   1_455  S
C830        C834   1.450       .  S
C831        N838   1.157       .  T
C832        N839   1.157       .  T
C833        N837   1.158       .  T
C834        N840   1.158       .  T
C835        N844   1.157       .  T
C836        N842   1.157       .  T
C845        C846   1.412       .  A
C845        C850   1.414   1_455  A
C845        C863   1.449       .  S
C846        C851   1.504       .  S
C846        C847   1.413       .  A
C847        C848   1.414       .  A
C847        C852   1.450       .  S
C848        C849   1.413   1_455  A
C848        C864   1.451       .  S
C849        C850   1.411       .  A
C850        C853   1.449       .  S
C851        C854   1.412       .  A
C851        C858   1.410       .  A
C852        N869   1.157       .  T
C853        N871   1.157       .  T
C854        C855   1.413       .  A
C854        C859   1.451       .  S
C855        C856   1.418       .  A
C855        C861   1.451       .  S
C856        C857   1.418       .  A
C857        C858   1.415       .  A
C857        C860   1.451       .  S
C858        C862   1.450       .  S
C859        N866   1.157       .  T
C860        N867   1.157       .  T
C861        N865   1.157       .  T
C862        N868   1.157       .  T
C863        N872   1.157       .  T
C864        N870   1.157       .  T
C873        C874   1.412       .  A
C873        C878   1.412       .  A
C873        C891   1.451       .  S
C874        C879   1.500   1_554  S
C874        C875   1.411       .  A
C875        C876   1.411       .  A
C875        C880   1.451       .  S
C876        C877   1.417       .  A
C876        C892   1.452       .  S
C877        C878   1.417       .  A
C878        C881   1.452       .  S
C879        C882   1.411       .  A
C879        C886   1.411       .  A
C880        N897   1.157   1_554  T
C881        N899   1.157       .  T
C882        C883   1.412       .  A
C882        C887   1.451       .  S
C883        C884   1.417       .  A
C883        C889   1.452       .  S
C884        C885   1.417       .  A
C885        C886   1.411       .  A
C885        C888   1.451       .  S
C886        C890   1.451       .  S
C887        N894   1.157       .  T
C888        N895   1.157       .  T
C889        N893   1.157       .  T
C890        N896   1.157       .  T
C891        N900   1.157       .  T
C892        N898   1.157       .  T
C901        C902   1.408       .  A
C901        C906   1.417       .  A
C901        C919   1.451       .  S
C902        C907   1.505       .  S
C902        C903   1.406       .  A
C903        C904   1.414       .  A
C903        C908   1.453       .  S
C904        C905   1.431       .  A
C904        C920   1.452   1_565  S
C905        C906   1.426       .  A
C906        C909   1.450       .  S
C907        C910   1.410       .  A
C907        C914   1.412       .  A
C908        N925   1.157       .  T
C909        N927   1.157       .  T
C910        C911   1.411       .  A
C910        C915   1.452       .  S
C911        C912   1.420       .  A
C911        C917   1.452       .  S
C912        C913   1.416       .  A
C913        C914   1.417       .  A
C913        C916   1.451       .  S
C914        C918   1.449       .  S
C915        N922   1.157       .  T
C916        N923   1.158       .  T
C917        N921   1.158       .  T
C918        N924   1.157       .  T
C919        N928   1.157       .  T
C920        N926   1.158       .  T
C929        C930   1.410       .  A
C929        C934   1.408       .  A
C929        C947   1.452       .  S
C930        C935   1.498       .  S
C930        C931   1.414       .  A
C931        C932   1.414       .  A
C931        C936   1.449       .  S
C932        C933   1.409       .  A
C932        C948   1.449       .  S
C933        C934   1.413       .  A
C934        C937   1.451       .  S
C935        C938   1.411       .  A
C935        C942   1.408       .  A
C936        N953   1.157       .  T
C937        N955   1.157       .  T
C938        C939   1.415       .  A
C938        C943   1.450       .  S
C939        C940   1.418   1_655  A
C939        C945   1.450   1_655  S
C940        C941   1.423       .  A
C941        C942   1.409   1_455  A
C941        C944   1.452       .  S
C942        C946   1.453       .  S
C943        N950   1.157       .  T
C944        N951   1.158       .  T
C945        N949   1.157       .  T
C946        N952   1.157       .  T
C947        N956   1.157       .  T
C948        N954   1.157       .  T
C957        C958   1.413       .  A
C957        C962   1.416       .  A
C957        C975   1.450       .  S
C958        C963   1.505       .  S
C958        C959   1.411       .  A
C959        C960   1.409       .  A
C959        C964   1.453       .  S
C960        C961   1.421   1_565  A
C960        C976   1.452       .  S
C961        C962   1.417   1_545  A
C962        C965   1.448   1_565  S
C963        C966   1.410       .  A
C963        C970   1.409       .  A
C964        N981   1.157       .  T
C965        N983   1.157       .  T
C966        C967   1.414       .  A
C966        C971   1.452       .  S
C967        C968   1.426       .  A
C967        C973   1.451       .  S
C968        C969   1.425       .  A
C969        C970   1.413       .  A
C969        C972   1.451       .  S
C970        C974   1.451       .  S
C971        N978   1.157       .  T
C972        N979   1.157       .  T
C973        N977   1.158       .  T
C974        N980   1.157       .  T
C975        N984   1.157       .  T
C976        N982   1.157   1_565  T
C985        C986   1.414       .  A
C985        C990   1.410       .  A
C985       C1003   1.452       .  S
C986        C991   1.502       .  S
C986        C987   1.412       .  A
C987        C988   1.414       .  A
C987        C992   1.450       .  S
C988        C989   1.415       .  A
C988       C1004   1.450       .  S
C989        C990   1.415       .  A
C990        C993   1.452       .  S
C991        C994   1.411       .  A
C991        C998   1.414       .  A
C992       N1009   1.157       .  T
C993       N1011   1.157       .  T
C994        C995   1.410   1_655  A
C994        C999   1.451       .  S
C995        C996   1.416       .  A
C995       C1001   1.451       .  S
C996        C997   1.413   1_455  A
C997        C998   1.413       .  A
C997       C1000   1.450       .  S
C998       C1002   1.450       .  S
C999       N1006   1.157       .  T
C1000      N1007   1.157       .  T
C1001      N1005   1.157       .  T
C1002      N1008   1.157       .  T
C1003      N1012   1.157       .  T
C1004      N1010   1.157       .  T
C1013      C1014   1.408       .  A
C1013      C1018   1.408       .  A
C1013      C1031   1.453       .  S
C1014      C1019   1.495   1_556  S
C1014      C1015   1.409       .  A
C1015      C1016   1.413       .  A
C1015      C1020   1.451       .  S
C1016      C1017   1.420       .  A
C1016      C1032   1.451       .  S
C1017      C1018   1.421       .  A
C1018      C1021   1.451       .  S
C1019      C1022   1.412       .  A
C1019      C1026   1.412       .  A
C1020      N1037   1.157       .  T
C1021      N1039   1.157       .  T
C1022      C1023   1.411       .  A
C1022      C1027   1.450       .  S
C1023      C1024   1.412       .  A
C1023      C1029   1.452       .  S
C1024      C1025   1.411       .  A
C1025      C1026   1.409       .  A
C1025      C1028   1.451       .  S
C1026      C1030   1.450       .  S
C1027      N1034   1.157       .  T
C1028      N1035   1.157       .  T
C1029      N1033   1.157       .  T
C1030      N1036   1.157       .  T
C1031      N1040   1.157       .  T
C1032      N1038   1.158       .  T
C1041      C1042   1.410       .  A
C1041      C1046   1.408       .  A
C1041      C1059   1.451       .  S
C1042      C1047   1.500       .  S
C1042      C1043   1.413   1_565  A
C1043      C1044   1.416       .  A
C1043      C1048   1.448       .  S
C1044      C1045   1.412       .  A
C1044      C1060   1.450       .  S
C1045      C1046   1.412   1_545  A
C1046      C1049   1.450       .  S
C1047      C1050   1.411       .  A
C1047      C1054   1.413       .  A
C1048      N1065   1.157       .  T
C1049      N1067   1.157       .  T
C1050      C1051   1.407       .  A
C1050      C1055   1.452   1_565  S
C1051      C1052   1.414       .  A
C1051      C1057   1.452       .  S
C1052      C1053   1.412       .  A
C1053      C1054   1.417       .  A
C1053      C1056   1.449       .  S
C1054      C1058   1.448       .  S
C1055      N1062   1.157       .  T
C1056      N1063   1.157       .  T
C1057      N1061   1.157       .  T
C1058      N1064   1.157       .  T
C1059      N1068   1.157       .  T
C1060      N1066   1.157       .  T
C1069      C1070   1.407       .  A
C1069      C1074   1.412       .  A
C1069      C1087   1.450       .  S
C1070      C1075   1.486       .  S
C1070      C1071   1.406       .  A
C1071      C1072   1.402       .  A
C1071      C1076   1.455       .  S
C1072      C1073   1.422       .  A
C1072      C1088   1.453       .  S
C1073      C1074   1.421       .  A
C1074      C1077   1.450       .  S
C1075      C1078   1.409       .  A
C1075      C1082   1.408       .  A
C1076      N1093   1.157       .  T
C1077      N1095   1.157       .  T
C1078      C1079   1.409       .  A
C1078      C1083   1.450       .  S
C1079      C1080   1.414       .  A
C1079      C1085   1.451       .  S
C1080      C1081   1.413       .  A
C1081      C1082   1.404       .  A
C1081      C1084   1.449       .  S
C1082      C1086   1.453       .  S
C1083      N1090   1.157       .  T
C1084      N1091   1.156       .  T
C1085      N1089   1.157       .  T
C1086      N1092   1.157       .  T
C1087      N1096   1.157       .  T
C1088      N1094   1.157       .  T
C1097      C1098   1.408       .  A
C1097      C1102   1.411       .  A
C1097      C1115   1.452       .  S
C1098      C1103   1.497       .  S
C1098      C1099   1.408       .  A
C1099      C1100   1.412       .  A
C1099      C1104   1.452       .  S
C1100      C1101   1.425       .  A
C1100      C1116   1.452       .  S
C1101      C1102   1.421       .  A
C1102      C1105   1.451       .  S
C1103      C1106   1.412       .  A
C1103      C1110   1.413       .  A
C1104      N1121   1.157       .  T
C1105      N1123   1.158       .  T
C1106      C1107   1.408       .  A
C1106      C1111   1.451       .  S
C1107      C1108   1.409       .  A
C1107      C1113   1.450       .  S
C1108      C1109   1.410       .  A
C1109      C1110   1.411       .  A
C1109      C1112   1.451       .  S
C1110      C1114   1.450       .  S
C1111      N1118   1.157       .  T
C1112      N1119   1.157       .  T
C1113      N1117   1.157       .  T
C1114      N1120   1.157       .  T
C1115      N1124   1.157       .  T
C1116      N1122   1.158       .  T
C1125      C1126   1.412       .  A
C1125      C1130   1.418       .  A
C1125      C1143   1.449       .  S
C1126      C1131   1.502       .  S
C1126      C1127   1.410       .  A
C1127      C1128   1.409       .  A
C1127      C1132   1.452   1_565  S
C1128      C1129   1.416       .  A
C1128      C1144   1.450       .  S
C1129      C1130   1.416       .  A
C1130      C1133   1.449       .  S
C1131      C1134   1.411       .  A
C1131      C1138   1.414   1_565  A
C1132      N1149   1.157       .  T
C1133      N1151   1.157       .  T
C1134      C1135   1.409       .  A
C1134      C1139   1.451       .  S
C1135      C1136   1.411   1_565  A
C1135      C1141   1.448       .  S
C1136      C1137   1.410       .  A
C1137      C1138   1.417       .  A
C1137      C1140   1.448       .  S
C1138      C1142   1.448       .  S
C1139      N1146   1.157       .  T
C1140      N1147   1.157       .  T
C1141      N1145   1.157       .  T
C1142      N1148   1.157       .  T
C1143      N1152   1.157       .  T
C1144      N1150   1.156   1_565  T
C1153      C1154   1.407       .  A
C1153      C1158   1.407       .  A
C1153      C1171   1.452       .  S
C1154      C1159   1.488       .  S
C1154      C1155   1.406       .  A
C1155      C1156   1.410       .  A
C1155      C1160   1.452       .  S
C1156      C1157   1.423       .  A
C1156      C1172   1.452       .  S
C1157      C1158   1.417       .  A
C1158      C1161   1.448       .  S
C1159      C1162   1.410       .  A
C1159      C1166   1.409       .  A
C1160      N1177   1.157       .  T
C1161      N1179   1.155       .  T
C1162      C1163   1.412       .  A
C1162      C1167   1.449       .  S
C1163      C1164   1.414       .  A
C1163      C1169   1.451       .  S
C1164      C1165   1.415       .  A
C1165      C1166   1.402       .  A
C1165      C1168   1.453       .  S
C1166      C1170   1.453       .  S
C1167      N1174   1.157       .  T
C1168      N1175   1.157       .  T
C1169      N1173   1.157       .  T
C1170      N1176   1.157       .  T
C1171      N1180   1.157       .  T
C1172      N1178   1.158       .  T
C1181      C1182   1.413       .  A
C1181      C1186   1.413       .  A
C1181      C1199   1.450       .  S
C1182      C1187   1.500       .  S
C1182      C1183   1.413       .  A
C1183      C1184   1.408       .  A
C1183      C1188   1.452       .  S
C1184      C1185   1.411       .  A
C1184      C1200   1.449       .  S
C1185      C1186   1.413       .  A
C1186      C1189   1.451       .  S
C1187      C1190   1.414       .  A
C1187      C1194   1.413       .  A
C1188      N1205   1.157       .  T
C1189      N1207   1.157       .  T
C1190      C1191   1.409       .  A
C1190      C1195   1.452       .  S
C1191      C1192   1.411       .  A
C1191      C1197   1.451       .  S
C1192      C1193   1.413       .  A
C1193      C1194   1.413       .  A
C1193      C1196   1.451       .  S
C1194      C1198   1.450       .  S
C1195      N1202   1.157       .  T
C1196      N1203   1.157       .  T
C1197      N1201   1.157       .  T
C1198      N1204   1.157       .  T
C1199      N1208   1.157       .  T
C1200      N1206   1.156       .  T
C1209      C1210   1.409       .  A
C1209      C1214   1.409       .  A
C1209      C1227   1.453       .  S
C1210      C1215   1.499   1_565  S
C1210      C1211   1.410       .  A
C1211      C1212   1.415       .  A
C1211      C1216   1.450       .  S
C1212      C1213   1.419       .  A
C1212      C1228   1.450       .  S
C1213      C1214   1.423       .  A
C1214      C1217   1.453       .  S
C1215      C1218   1.408   1_545  A
C1215      C1222   1.409       .  A
C1216      N1233   1.157       .  T
C1217      N1235   1.157       .  T
C1218      C1219   1.413   1_565  A
C1218      C1223   1.451       .  S
C1219      C1220   1.423       .  A
C1219      C1225   1.452       .  S
C1220      C1221   1.417       .  A
C1221      C1222   1.412       .  A
C1221      C1224   1.448       .  S
C1222      C1226   1.452       .  S
C1223      N1230   1.157       .  T
C1224      N1231   1.156       .  T
C1225      N1229   1.157   1_545  T
C1226      N1232   1.157       .  T
C1227      N1236   1.157       .  T
C1228      N1234   1.158       .  T
C1237      C1238   1.410       .  A
C1237      C1242   1.408       .  A
C1237      C1255   1.451       .  S
C1238      C1243   1.495       .  S
C1238      C1239   1.411       .  A
C1239      C1240   1.412       .  A
C1239      C1244   1.450       .  S
C1240      C1241   1.412       .  A
C1240      C1256   1.451       .  S
C1241      C1242   1.411       .  A
C1242      C1245   1.450       .  S
C1243      C1246   1.410       .  A
C1243      C1250   1.409       .  A
C1244      N1261   1.157       .  T
C1245      N1263   1.157       .  T
C1246      C1247   1.410       .  A
C1246      C1251   1.451       .  S
C1247      C1248   1.415       .  A
C1247      C1253   1.451       .  S
C1248      C1249   1.419       .  A
C1249      C1250   1.412       .  A
C1249      C1252   1.450       .  S
C1250      C1254   1.451       .  S
C1251      N1258   1.157       .  T
C1252      N1259   1.157       .  T
C1253      N1257   1.157       .  T
C1254      N1260   1.157       .  T
C1255      N1264   1.157       .  T
C1256      N1262   1.157       .  T
C1265      C1266   1.409       .  A
C1265      C1270   1.410       .  A
C1265      C1283   1.451       .  S
C1266      C1271   1.491       .  S
C1266      C1267   1.408       .  A
C1267      C1268   1.408       .  A
C1267      C1272   1.451       .  S
C1268      C1269   1.416       .  A
C1268      C1284   1.448       .  S
C1269      C1270   1.419       .  A
C1270      C1273   1.452       .  S
C1271      C1274   1.409       .  A
C1271      C1278   1.411       .  A
C1272      N1289   1.157       .  T
C1273      N1291   1.157       .  T
C1274      C1275   1.402       .  A
C1274      C1279   1.454       .  S
C1275      C1276   1.414       .  A
C1275      C1281   1.453       .  S
C1276      C1277   1.413       .  A
C1277      C1278   1.415       .  A
C1277      C1280   1.450       .  S
C1278      C1282   1.449       .  S
C1279      N1286   1.157       .  T
C1280      N1287   1.157       .  T
C1281      N1285   1.157       .  T
C1282      N1288   1.157       .  T
C1283      N1292   1.157       .  T
C1284      N1290   1.156       .  T
C1293      C1294   1.408       .  A
C1293      C1298   1.406       .  A
C1293      C1311   1.454       .  S
C1294      C1299   1.496   1_565  S
C1294      C1295   1.411       .  A
C1295      C1296   1.416       .  A
C1295      C1300   1.449   1_565  S
C1296      C1297   1.417       .  A
C1296      C1312   1.449       .  S
C1297      C1298   1.419       .  A
C1298      C1301   1.451       .  S
C1299      C1302   1.409       .  A
C1299      C1306   1.411   1_545  A
C1300      N1317   1.157       .  T
C1301      N1319   1.157       .  T
C1302      C1303   1.410       .  A
C1302      C1307   1.452       .  S
C1303      C1304   1.415       .  A
C1303      C1309   1.449       .  S
C1304      C1305   1.415       .  A
C1305      C1306   1.413   1_545  A
C1305      C1308   1.449       .  S
C1306      C1310   1.450       .  S
C1307      N1314   1.157       .  T
C1308      N1315   1.157   1_545  T
C1309      N1313   1.157       .  T
C1310      N1316   1.157       .  T
C1311      N1320   1.157       .  T
C1312      N1318   1.158       .  T
C1321      C1322   1.409       .  A
C1321      C1326   1.410       .  A
C1321      C1339   1.451   1_455  S
C1322      C1327   1.494   1_455  S
C1322      C1323   1.409       .  A
C1323      C1324   1.410       .  A
C1323      C1328   1.451       .  S
C1324      C1325   1.415       .  A
C1324      C1340   1.448       .  S
C1325      C1326   1.419       .  A
C1326      C1329   1.452       .  S
C1327      C1330   1.407       .  A
C1327      C1334   1.409       .  A
C1328      N1345   1.157       .  T
C1329      N1347   1.157   1_455  T
C1330      C1331   1.406       .  A
C1330      C1335   1.454   1_655  S
C1331      C1332   1.422       .  A
C1331      C1337   1.452       .  S
C1332      C1333   1.418       .  A
C1333      C1334   1.415       .  A
C1333      C1336   1.450       .  S
C1334      C1338   1.449       .  S
C1335      N1342   1.157       .  T
C1336      N1343   1.157       .  T
C1337      N1341   1.158       .  T
C1338      N1344   1.158   1_655  T
C1339      N1348   1.157       .  T
C1340      N1346   1.156       .  T
C1349      C1350   1.410       .  A
C1349      C1354   1.410       .  A
C1349      C1367   1.450       .  S
C1350      C1355   1.492       .  S
C1350      C1351   1.411       .  A
C1351      C1352   1.407       .  A
C1351      C1356   1.451       .  S
C1352      C1353   1.411       .  A
C1352      C1368   1.451       .  S
C1353      C1354   1.412       .  A
C1354      C1357   1.450       .  S
C1355      C1358   1.408       .  A
C1355      C1362   1.411       .  A
C1356      N1373   1.157       .  T
C1357      N1375   1.157       .  T
C1358      C1359   1.404       .  A
C1358      C1363   1.452       .  S
C1359      C1360   1.412       .  A
C1359      C1365   1.449       .  S
C1360      C1361   1.412       .  A
C1361      C1362   1.416       .  A
C1361      C1364   1.447       .  S
C1362      C1366   1.449       .  S
C1363      N1370   1.157       .  T
C1364      N1371   1.156       .  T
C1365      N1369   1.156       .  T
C1366      N1372   1.157       .  T
C1367      N1376   1.157       .  T
C1368      N1374   1.157       .  T
C1377      C1378   1.410       .  A
C1377      C1382   1.411       .  A
C1377      C1395   1.452       .  S
C1378      C1383   1.502       .  S
C1378      C1379   1.411       .  A
C1379      C1380   1.416   1_655  A
C1379      C1384   1.449       .  S
C1380      C1381   1.417       .  A
C1380      C1396   1.450       .  S
C1381      C1382   1.420   1_455  A
C1382      C1385   1.452   1_655  S
C1383      C1386   1.407       .  A
C1383      C1390   1.408       .  A
C1384      N1401   1.157       .  T
C1385      N1403   1.157       .  T
C1386      C1387   1.413       .  A
C1386      C1391   1.452       .  S
C1387      C1388   1.429       .  A
C1387      C1393   1.452       .  S
C1388      C1389   1.423       .  A
C1389      C1390   1.416       .  A
C1389      C1392   1.450       .  S
C1390      C1394   1.451       .  S
C1391      N1398   1.158       .  T
C1392      N1399   1.158       .  T
C1393      N1397   1.157       .  T
C1394      N1400   1.157       .  T
C1395      N1404   1.157       .  T
C1396      N1402   1.157       .  T
C1405      C1406   1.411       .  A
C1405      C1410   1.414       .  A
C1405      C1423   1.451       .  S
C1406      C1411   1.507       .  S
C1406      C1407   1.414       .  A
C1407      C1408   1.413       .  A
C1407      C1412   1.453       .  S
C1408      C1409   1.420       .  A
C1408      C1424   1.452       .  S
C1409      C1410   1.420       .  A
C1410      C1413   1.451       .  S
C1411      C1414   1.416       .  A
C1411      C1418   1.414       .  A
C1412      N1429   1.157       .  T
C1413      N1431   1.157       .  T
C1414      C1415   1.412       .  A
C1414      C1419   1.451       .  S
C1415      C1416   1.413       .  A
C1415      C1421   1.452       .  S
C1416      C1417   1.414       .  A
C1417      C1418   1.413       .  A
C1417      C1420   1.451   1_565  S
C1418      C1422   1.450       .  S
C1419      N1426   1.157       .  T
C1420      N1427   1.157       .  T
C1421      N1425   1.157       .  T
C1422      N1428   1.157       .  T
C1423      N1432   1.157       .  T
C1424      N1430   1.158       .  T
C1433      C1434   1.409       .  A
C1433      C1438   1.410       .  A
C1433      C1451   1.452       .  S
C1434      C1439   1.498       .  S
C1434      C1435   1.409       .  A
C1435      C1436   1.413       .  A
C1435      C1440   1.452       .  S
C1436      C1437   1.424       .  A
C1436      C1452   1.451       .  S
C1437      C1438   1.422       .  A
C1438      C1441   1.452       .  S
C1439      C1442   1.412       .  A
C1439      C1446   1.412       .  A
C1440      N1457   1.157       .  T
C1441      N1459   1.157       .  T
C1442      C1443   1.409       .  A
C1442      C1447   1.452       .  S
C1443      C1444   1.416   1_655  A
C1443      C1449   1.452       .  S
C1444      C1445   1.413       .  A
C1445      C1446   1.411   1_455  A
C1445      C1448   1.450       .  S
C1446      C1450   1.450       .  S
C1447      N1454   1.157       .  T
C1448      N1455   1.157       .  T
C1449      N1453   1.157       .  T
C1450      N1456   1.157       .  T
C1451      N1460   1.157       .  T
C1452      N1458   1.158       .  T
C1461      C1462   1.415       .  A
C1461      C1466   1.421       .  A
C1461      C1479   1.449       .  S
C1462      C1467   1.511       .  S
C1462      C1463   1.412       .  A
C1463      C1464   1.411       .  A
C1463      C1468   1.452       .  S
C1464      C1465   1.419       .  A
C1464      C1480   1.452       .  S
C1465      C1466   1.416       .  A
C1466      C1469   1.449       .  S
C1467      C1470   1.412       .  A
C1467      C1474   1.413       .  A
C1468      N1485   1.157       .  T
C1469      N1487   1.157       .  T
C1470      C1471   1.417       .  A
C1470      C1475   1.451       .  S
C1471      C1472   1.420       .  A
C1471      C1477   1.451       .  S
C1472      C1473   1.416       .  A
C1473      C1474   1.416       .  A
C1473      C1476   1.449       .  S
C1474      C1478   1.450       .  S
C1475      N1482   1.157       .  T
C1476      N1483   1.157       .  T
C1477      N1481   1.157       .  T
C1478      N1484   1.157       .  T
C1479      N1488   1.157       .  T
C1480      N1486   1.157   1_565  T
C1489      C1490   1.408       .  A
C1489      C1494   1.411       .  A
C1489      C1507   1.452       .  S
C1490      C1495   1.496       .  S
C1490      C1491   1.409       .  A
C1491      C1492   1.411       .  A
C1491      C1496   1.451       .  S
C1492      C1493   1.420       .  A
C1492      C1508   1.452       .  S
C1493      C1494   1.422       .  A
C1494      C1497   1.451       .  S
C1495      C1498   1.410       .  A
C1495      C1502   1.409       .  A
C1496      N1513   1.157       .  T
C1497      N1515   1.157       .  T
C1498      C1499   1.411       .  A
C1498      C1503   1.451       .  S
C1499      C1500   1.416       .  A
C1499      C1505   1.450       .  S
C1500      C1501   1.419       .  A
C1501      C1502   1.410       .  A
C1501      C1504   1.451       .  S
C1502      C1506   1.451       .  S
C1503      N1510   1.157       .  T
C1504      N1511   1.157       .  T
C1505      N1509   1.157       .  T
C1506      N1512   1.157       .  T
C1507      N1516   1.157       .  T
C1508      N1514   1.158       .  T
C1517      C1518   1.410       .  A
C1517      C1522   1.418       .  A
C1517      C1535   1.449       .  S
C1518      C1523   1.501       .  S
C1518      C1519   1.409   1_455  A
C1519      C1520   1.409   1_655  A
C1519      C1524   1.454       .  S
C1520      C1521   1.423       .  A
C1520      C1536   1.452       .  S
C1521      C1522   1.420       .  A
C1522      C1525   1.450       .  S
C1523      C1526   1.409       .  A
C1523      C1530   1.413   1_455  A
C1524      N1541   1.157       .  T
C1525      N1543   1.157       .  T
C1526      C1527   1.407       .  A
C1526      C1531   1.453       .  S
C1527      C1528   1.417   1_455  A
C1527      C1533   1.451       .  S
C1528      C1529   1.414       .  A
C1529      C1530   1.418       .  A
C1529      C1532   1.450       .  S
C1530      C1534   1.448       .  S
C1531      N1538   1.157       .  T
C1532      N1539   1.157       .  T
C1533      N1537   1.157       .  T
C1534      N1540   1.157       .  T
C1535      N1544   1.157       .  T
C1536      N1542   1.157   1_455  T
C1545      C1546   1.408       .  A
C1545      C1550   1.402       .  A
C1545      C1563   1.454       .  S
C1546      C1551   1.486       .  S
C1546      C1547   1.408       .  A
C1547      C1548   1.412       .  A
C1547      C1552   1.450       .  S
C1548      C1549   1.419       .  A
C1548      C1564   1.450       .  S
C1549      C1550   1.419       .  A
C1550      C1553   1.454       .  S
C1551      C1554   1.410       .  A
C1551      C1558   1.405       .  A
C1552      N1569   1.157       .  T
C1553      N1571   1.158       .  T
C1554      C1555   1.409       .  A
C1554      C1559   1.451       .  S
C1555      C1556   1.416       .  A
C1555      C1561   1.451       .  S
C1556      C1557   1.416       .  A
C1557      C1558   1.405       .  A
C1557      C1560   1.446       .  S
C1558      C1562   1.453       .  S
C1559      N1566   1.157       .  T
C1560      N1567   1.155       .  T
C1561      N1565   1.157       .  T
C1562      N1568   1.157       .  T
C1563      N1572   1.157       .  T
C1564      N1570   1.157       .  T
C1573      C1574   1.410       .  A
C1573      C1578   1.409       .  A
C1573      C1591   1.453       .  S
C1574      C1579   1.498       .  S
C1574      C1575   1.409       .  A
C1575      C1576   1.415       .  A
C1575      C1580   1.449       .  S
C1576      C1577   1.419       .  A
C1576      C1592   1.449       .  S
C1577      C1578   1.421       .  A
C1578      C1581   1.453       .  S
C1579      C1582   1.412       .  A
C1579      C1586   1.411       .  A
C1580      N1597   1.157       .  T
C1581      N1599   1.158       .  T
C1582      C1583   1.415       .  A
C1582      C1587   1.449       .  S
C1583      C1584   1.411       .  A
C1583      C1589   1.450       .  S
C1584      C1585   1.410       .  A
C1585      C1586   1.408       .  A
C1585      C1588   1.450       .  S
C1586      C1590   1.451       .  S
C1587      N1594   1.157       .  T
C1588      N1595   1.157       .  T
C1589      N1593   1.157       .  T
C1590      N1596   1.157       .  T
C1591      N1600   1.157       .  T
C1592      N1598   1.157       .  T
C1601      C1602   1.410       .  A
C1601      C1606   1.416       .  A
C1601      C1619   1.449       .  S
C1602      C1607   1.498   1_655  S
C1602      C1603   1.409       .  A
C1603      C1604   1.408       .  A
C1603      C1608   1.453   1_655  S
C1604      C1605   1.420       .  A
C1604      C1620   1.453       .  S
C1605      C1606   1.418       .  A
C1606      C1609   1.450       .  S
C1607      C1610   1.410       .  A
C1607      C1614   1.411   1_455  A
C1608      N1625   1.157       .  T
C1609      N1627   1.157       .  T
C1610      C1611   1.412       .  A
C1610      C1615   1.450       .  S
C1611      C1612   1.414       .  A
C1611      C1617   1.449       .  S
C1612      C1613   1.413       .  A
C1613      C1614   1.412   1_455  A
C1613      C1616   1.447   1_455  S
C1614      C1618   1.451       .  S
C1615      N1622   1.157       .  T
C1616      N1623   1.156       .  T
C1617      N1621   1.157       .  T
C1618      N1624   1.157       .  T
C1619      N1628   1.157       .  T
C1620      N1626   1.157       .  T
C1629      C1630   1.412       .  A
C1629      C1634   1.414       .  A
C1629      C1647   1.450       .  S
C1630      C1635   1.504       .  S
C1630      C1631   1.411       .  A
C1631      C1632   1.414       .  A
C1631      C1636   1.449       .  S
C1632      C1633   1.414   1_455  A
C1632      C1648   1.450   1_455  S
C1633      C1634   1.415   1_655  A
C1634      C1637   1.450       .  S
C1635      C1638   1.413       .  A
C1635      C1642   1.412       .  A
C1636      N1653   1.157       .  T
C1637      N1655   1.157       .  T
C1638      C1639   1.417       .  A
C1638      C1643   1.449       .  S
C1639      C1640   1.413       .  A
C1639      C1645   1.450       .  S
C1640      C1641   1.414       .  A
C1641      C1642   1.412       .  A
C1641      C1644   1.451       .  S
C1642      C1646   1.451       .  S
C1643      N1650   1.157       .  T
C1644      N1651   1.157       .  T
C1645      N1649   1.157       .  T
C1646      N1652   1.157       .  T
C1647      N1656   1.157       .  T
C1648      N1654   1.157       .  T
C1657      C1658   1.412       .  A
C1657      C1662   1.408       .  A
C1657      C1675   1.452       .  S
C1658      C1663   1.499       .  S
C1658      C1659   1.413       .  A
C1659      C1660   1.413   1_545  A
C1659      C1664   1.449       .  S
C1660      C1661   1.410       .  A
C1660      C1676   1.450       .  S
C1661      C1662   1.411   1_565  A
C1662      C1665   1.451       .  S
C1663      C1666   1.407       .  A
C1663      C1670   1.408       .  A
C1664      N1681   1.157       .  T
C1665      N1683   1.157       .  T
C1666      C1667   1.414       .  A
C1666      C1671   1.452       .  S
C1667      C1668   1.426       .  A
C1667      C1673   1.452       .  S
C1668      C1669   1.425       .  A
C1669      C1670   1.411       .  A
C1669      C1672   1.452       .  S
C1670      C1674   1.453       .  S
C1671      N1678   1.157       .  T
C1672      N1679   1.158       .  T
C1673      N1677   1.158       .  T
C1674      N1680   1.157       .  T
C1675      N1684   1.157       .  T
C1676      N1682   1.157       .  T
C1685      C1686   1.409       .  A
C1685      C1690   1.412       .  A
C1685      C1703   1.450       .  S
C1686      C1691   1.500       .  S
C1686      C1687   1.410       .  A
C1687      C1688   1.413       .  A
C1687      C1692   1.451       .  S
C1688      C1689   1.421       .  A
C1688      C1704   1.451       .  S
C1689      C1690   1.419       .  A
C1690      C1693   1.452   1_455  S
C1691      C1694   1.410       .  A
C1691      C1698   1.409       .  A
C1692      N1709   1.157       .  T
C1693      N1711   1.157       .  T
C1694      C1695   1.415       .  A
C1694      C1699   1.450       .  S
C1695      C1696   1.418       .  A
C1695      C1701   1.449       .  S
C1696      C1697   1.421       .  A
C1697      C1698   1.410       .  A
C1697      C1700   1.451       .  S
C1698      C1702   1.452       .  S
C1699      N1706   1.157       .  T
C1700      N1707   1.157       .  T
C1701      N1705   1.157       .  T
C1702      N1708   1.157       .  T
C1703      N1712   1.157       .  T
C1704      N1710   1.158       .  T
C1713      C1714   1.407       .  A
C1713      C1718   1.411       .  A
C1713      C1731   1.453       .  S
C1714      C1719   1.501       .  S
C1714      C1715   1.408       .  A
C1715      C1716   1.416       .  A
C1715      C1720   1.450       .  S
C1716      C1717   1.423       .  A
C1716      C1732   1.451       .  S
C1717      C1718   1.428       .  A
C1718      C1721   1.452       .  S
C1719      C1722   1.411       .  A
C1719      C1726   1.409       .  A
C1720      N1737   1.157       .  T
C1721      N1739   1.158       .  T
C1722      C1723   1.413       .  A
C1722      C1727   1.451       .  S
C1723      C1724   1.419   1_545  A
C1723      C1729   1.451       .  S
C1724      C1725   1.421       .  A
C1725      C1726   1.413   1_565  A
C1725      C1728   1.451       .  S
C1726      C1730   1.450       .  S
C1727      N1734   1.157       .  T
C1728      N1735   1.157       .  T
C1729      N1733   1.157       .  T
C1730      N1736   1.157       .  T
C1731      N1740   1.157       .  T
C1732      N1738   1.158       .  T
C1741      C1742   1.411       .  A
C1741      C1746   1.409       .  A
C1741      C1759   1.451       .  S
C1742      C1747   1.493       .  S
C1742      C1743   1.409       .  A
C1743      C1744   1.409       .  A
C1743      C1748   1.450       .  S
C1744      C1745   1.415       .  A
C1744      C1760   1.452       .  S
C1745      C1746   1.413       .  A
C1746      C1749   1.451       .  S
C1747      C1750   1.406       .  A
C1747      C1754   1.406       .  A
C1748      N1765   1.157       .  T
C1749      N1767   1.157       .  T
C1750      C1751   1.410       .  A
C1750      C1755   1.453       .  S
C1751      C1752   1.423       .  A
C1751      C1757   1.450       .  S
C1752      C1753   1.426       .  A
C1753      C1754   1.412       .  A
C1753      C1756   1.452       .  S
C1754      C1758   1.452       .  S
C1755      N1762   1.157       .  T
C1756      N1763   1.158       .  T
C1757      N1761   1.157       .  T
C1758      N1764   1.157       .  T
C1759      N1768   1.157       .  T
C1760      N1766   1.157       .  T
C1769      C1770   1.413   1_655  A
C1769      C1774   1.417       .  A
C1769      C1787   1.449       .  S
C1770      C1775   1.498       .  S
C1770      C1771   1.409       .  A
C1771      C1772   1.405       .  A
C1771      C1776   1.454       .  S
C1772      C1773   1.419   1_455  A
C1772      C1788   1.452       .  S
C1773      C1774   1.415       .  A
C1774      C1777   1.449       .  S
C1775      C1778   1.413       .  A
C1775      C1782   1.413       .  A
C1776      N1793   1.157       .  T
C1777      N1795   1.158       .  T
C1778      C1779   1.410       .  A
C1778      C1783   1.451   1_455  S
C1779      C1780   1.411       .  A
C1779      C1785   1.452   1_455  S
C1780      C1781   1.412       .  A
C1781      C1782   1.411       .  A
C1781      C1784   1.451       .  S
C1782      C1786   1.450       .  S
C1783      N1790   1.157       .  T
C1784      N1791   1.158       .  T
C1785      N1789   1.157       .  T
C1786      N1792   1.157       .  T
C1787      N1796   1.157       .  T
C1788      N1794   1.157       .  T
C1797      C1798   1.410       .  A
C1797      C1802   1.402       .  A
C1797      C1815   1.453       .  S
C1798      C1803   1.488       .  S
C1798      C1799   1.411       .  A
C1799      C1800   1.412       .  A
C1799      C1804   1.449       .  S
C1800      C1801   1.410       .  A
C1800      C1816   1.450       .  S
C1801      C1802   1.412       .  A
C1802      C1805   1.453       .  S
C1803      C1806   1.411       .  A
C1803      C1810   1.409       .  A
C1804      N1821   1.157       .  T
C1805      N1823   1.157       .  T
C1806      C1807   1.408       .  A
C1806      C1811   1.451       .  S
C1807      C1808   1.412       .  A
C1807      C1813   1.451       .  S
C1808      C1809   1.411       .  A
C1809      C1810   1.407       .  A
C1809      C1812   1.448       .  S
C1810      C1814   1.451       .  S
C1811      N1818   1.157       .  T
C1812      N1819   1.156       .  T
C1813      N1817   1.157       .  T
C1814      N1820   1.157       .  T
C1815      N1824   1.158       .  T
C1816      N1822   1.158       .  T
C1825      C1826   1.410       .  A
C1825      C1830   1.411       .  A
C1825      C1843   1.451       .  S
C1826      C1831   1.501       .  S
C1826      C1827   1.411       .  A
C1827      C1828   1.415       .  A
C1827      C1832   1.450       .  S
C1828      C1829   1.416       .  A
C1828      C1844   1.450       .  S
C1829      C1830   1.418       .  A
C1830      C1833   1.452       .  S
C1831      C1834   1.409       .  A
C1831      C1838   1.408       .  A
C1832      N1849   1.157       .  T
C1833      N1851   1.157       .  T
C1834      C1835   1.417       .  A
C1834      C1839   1.450       .  S
C1835      C1836   1.422       .  A
C1835      C1841   1.450       .  S
C1836      C1837   1.425       .  A
C1837      C1838   1.410       .  A
C1837      C1840   1.453       .  S
C1838      C1842   1.453       .  S
C1839      N1846   1.157       .  T
C1840      N1847   1.158       .  T
C1841      N1845   1.157       .  T
C1842      N1848   1.157       .  T
C1843      N1852   1.157       .  T
C1844      N1850   1.157       .  T
C1853      C1854   1.410       .  A
C1853      C1858   1.410       .  A
C1853      C1871   1.452       .  S
C1854      C1859   1.505       .  S
C1854      C1855   1.413       .  A
C1855      C1856   1.420       .  A
C1855      C1860   1.448       .  S
C1856      C1857   1.415       .  A
C1856      C1872   1.449       .  S
C1857      C1858   1.418       .  A
C1858      C1861   1.452       .  S
C1859      C1862   1.412       .  A
C1859      C1866   1.413       .  A
C1860      N1877   1.157       .  T
C1861      N1879   1.157       .  T
C1862      C1863   1.413       .  A
C1862      C1867   1.451       .  S
C1863      C1864   1.412       .  A
C1863      C1869   1.450       .  S
C1864      C1865   1.413       .  A
C1865      C1866   1.417       .  A
C1865      C1868   1.450       .  S
C1866      C1870   1.449       .  S
C1867      N1874   1.157       .  T
C1868      N1875   1.157       .  T
C1869      N1873   1.157       .  T
C1870      N1876   1.157       .  T
C1871      N1880   1.157       .  T
C1872      N1878   1.157       .  T
C1881      C1882   1.410       .  A
C1881      C1886   1.409       .  A
C1881      C1899   1.452       .  S
C1882      C1887   1.496       .  S
C1882      C1883   1.411       .  A
C1883      C1884   1.412       .  A
C1883      C1888   1.450       .  S
C1884      C1885   1.415       .  A
C1884      C1900   1.451       .  S
C1885      C1886   1.414       .  A
C1886      C1889   1.449       .  S
C1887      C1890   1.408       .  A
C1887      C1894   1.409       .  A
C1888      N1905   1.157       .  T
C1889      N1907   1.156       .  T
C1890      C1891   1.410       .  A
C1890      C1895   1.452       .  S
C1891      C1892   1.420       .  A
C1891      C1897   1.452       .  S
C1892      C1893   1.420       .  A
C1893      C1894   1.412       .  A
C1893      C1896   1.451       .  S
C1894      C1898   1.451       .  S
C1895      N1902   1.157       .  T
C1896      N1903   1.157       .  T
C1897      N1901   1.158       .  T
C1898      N1904   1.157       .  T
C1899      N1908   1.157       .  T
C1900      N1906   1.157       .  T
C1909      C1910   1.413       .  A
C1909      C1914   1.413       .  A
C1909      C1927   1.450       .  S
C1910      C1915   1.507       .  S
C1910      C1911   1.415       .  A
C1911      C1912   1.415       .  A
C1911      C1916   1.451       .  S
C1912      C1913   1.415       .  A
C1912      C1928   1.451       .  S
C1913      C1914   1.413       .  A
C1914      C1917   1.450       .  S
C1915      C1918   1.413       .  A
C1915      C1922   1.410       .  A
C1916      N1933   1.157       .  T
C1917      N1935   1.157       .  T
C1918      C1919   1.419       .  A
C1918      C1923   1.450       .  S
C1919      C1920   1.421       .  A
C1919      C1925   1.450       .  S
C1920      C1921   1.424       .  A
C1921      C1922   1.410       .  A
C1921      C1924   1.453       .  S
C1922      C1926   1.453       .  S
C1923      N1930   1.157       .  T
C1924      N1931   1.158       .  T
C1925      N1929   1.158       .  T
C1926      N1932   1.157       .  T
C1927      N1936   1.157       .  T
C1928      N1934   1.157       .  T
C1937      C1938   1.410       .  A
C1937      C1942   1.416       .  A
C1937      C1955   1.451       .  S
C1938      C1943   1.506       .  S
C1938      C1939   1.410       .  A
C1939      C1940   1.415       .  A
C1939      C1944   1.451       .  S
C1940      C1941   1.422       .  A
C1940      C1956   1.451       .  S
C1941      C1942   1.422       .  A
C1942      C1945   1.451       .  S
C1943      C1946   1.411       .  A
C1943      C1950   1.414       .  A
C1944      N1961   1.157       .  T
C1945      N1963   1.157       .  T
C1946      C1947   1.411       .  A
C1946      C1951   1.452       .  S
C1947      C1948   1.418       .  A
C1947      C1953   1.452       .  S
C1948      C1949   1.414       .  A
C1949      C1950   1.418       .  A
C1949      C1952   1.450       .  S
C1950      C1954   1.449       .  S
C1951      N1958   1.157       .  T
C1952      N1959   1.157       .  T
C1953      N1957   1.157       .  T
C1954      N1960   1.157       .  T
C1955      N1964   1.157       .  T
C1956      N1962   1.157       .  T
C1965      C1966   1.411       .  A
C1965      C1970   1.411       .  A
C1965      C1983   1.451       .  S
C1966      C1971   1.511       .  S
C1966      C1967   1.415       .  A
C1967      C1968   1.420       .  A
C1967      C1972   1.449       .  S
C1968      C1969   1.416       .  A
C1968      C1984   1.450       .  S
C1969      C1970   1.416       .  A
C1970      C1973   1.450       .  S
C1971      C1974   1.412       .  A
C1971      C1978   1.411       .  A
C1972      N1989   1.157       .  T
C1973      N1991   1.157       .  T
C1974      C1975   1.422       .  A
C1974      C1979   1.449       .  S
C1975      C1976   1.423       .  A
C1975      C1981   1.450       .  S
C1976      C1977   1.425       .  A
C1977      C1978   1.411       .  A
C1977      C1980   1.452       .  S
C1978      C1982   1.454       .  S
C1979      N1986   1.157       .  T
C1980      N1987   1.157       .  T
C1981      N1985   1.158       .  T
C1982      N1988   1.157       .  T
C1983      N1992   1.157       .  T
C1984      N1990   1.158       .  T
C1993      C1994   1.409       .  A
C1993      C1998   1.412       .  A
C1993      C2011   1.451       .  S
C1994      C1999   1.504       .  S
C1994      C1995   1.411       .  A
C1995      C1996   1.415       .  A
C1995      C2000   1.451       .  S
C1996      C1997   1.422       .  A
C1996      C2012   1.451       .  S
C1997      C1998   1.420       .  A
C1998      C2001   1.450       .  S
C1999      C2002   1.413       .  A
C1999      C2006   1.412       .  A
C2000      N2017   1.158       .  T
C2001      N2019   1.157       .  T
C2002      C2003   1.416       .  A
C2002      C2007   1.449       .  S
C2003      C2004   1.414       .  A
C2003      C2009   1.450       .  S
C2004      C2005   1.416       .  A
C2005      C2006   1.409       .  A
C2005      C2008   1.451       .  S
C2006      C2010   1.450       .  S
C2007      N2014   1.157       .  T
C2008      N2015   1.156       .  T
C2009      N2013   1.157       .  T
C2010      N2016   1.156       .  T
C2011      N2020   1.157       .  T
C2012      N2018   1.157       .  T
C2021      C2022   1.410       .  A
C2021      C2026   1.409       .  A
C2021      C2039   1.452       .  S
C2022      C2027   1.497       .  S
C2022      C2023   1.411       .  A
C2023      C2024   1.411       .  A
C2023      C2028   1.451       .  S
C2024      C2025   1.417       .  A
C2024      C2040   1.451       .  S
C2025      C2026   1.416       .  A
C2026      C2029   1.451       .  S
C2027      C2030   1.410       .  A
C2027      C2034   1.411       .  A
C2028      N2045   1.157       .  T
C2029      N2047   1.157       .  T
C2030      C2031   1.410       .  A
C2030      C2035   1.451       .  S
C2031      C2032   1.418       .  A
C2031      C2037   1.452       .  S
C2032      C2033   1.417       .  A
C2033      C2034   1.410       .  A
C2033      C2036   1.452       .  S
C2034      C2038   1.451       .  S
C2035      N2042   1.157       .  T
C2036      N2043   1.157       .  T
C2037      N2041   1.157       .  T
C2038      N2044   1.157       .  T
C2039      N2048   1.157       .  T
C2040      N2046   1.157       .  T
C2049      C2050   1.409       .  A
C2049      C2054   1.411       .  A
C2049      C2067   1.453       .  S
C2050      C2055   1.501       .  S
C2050      C2051   1.411       .  A
C2051      C2052   1.416       .  A
C2051      C2056   1.450       .  S
C2052      C2053   1.418       .  A
C2052      C2068   1.450       .  S
C2053      C2054   1.421       .  A
C2054      C2057   1.451       .  S
C2055      C2058   1.411       .  A
C2055      C2062   1.414       .  A
C2056      N2073   1.157       .  T
C2057      N2075   1.157       .  T
C2058      C2059   1.410       .  A
C2058      C2063   1.451       .  S
C2059      C2060   1.413       .  A
C2059      C2065   1.450       .  S
C2060      C2061   1.411       .  A
C2061      C2062   1.415       .  A
C2061      C2064   1.450       .  S
C2062      C2066   1.449       .  S
C2063      N2070   1.157       .  T
C2064      N2071   1.157       .  T
C2065      N2069   1.157       .  T
C2066      N2072   1.157       .  T
C2067      N2076   1.157       .  T
C2068      N2074   1.157       .  T
C2077      C2078   1.410       .  A
C2077      C2082   1.407       .  A
C2077      C2095   1.453       .  S
C2078      C2083   1.499       .  S
C2078      C2079   1.413       .  A
C2079      C2080   1.416       .  A
C2079      C2084   1.450       .  S
C2080      C2081   1.415       .  A
C2080      C2096   1.449       .  S
C2081      C2082   1.418       .  A
C2082      C2085   1.451       .  S
C2083      C2086   1.406       .  A
C2083      C2090   1.410       .  A
C2084      N2101   1.157       .  T
C2085      N2103   1.157       .  T
C2086      C2087   1.411       .  A
C2086      C2091   1.452       .  S
C2087      C2088   1.428       .  A
C2087      C2093   1.452       .  S
C2088      C2089   1.423       .  A
C2089      C2090   1.413       .  A
C2089      C2092   1.451       .  S
C2090      C2094   1.452       .  S
C2091      N2098   1.157       .  T
C2092      N2099   1.158       .  T
C2093      N2097   1.157       .  T
C2094      N2100   1.157       .  T
C2095      N2104   1.157       .  T
C2096      N2102   1.157       .  T
C2105      C2106   1.412       .  A
C2105      C2110   1.415       .  A
C2105      C2123   1.449       .  S
C2106      C2111   1.500       .  S
C2106      C2107   1.412       .  A
C2107      C2108   1.409       .  A
C2107      C2112   1.451       .  S
C2108      C2109   1.412       .  A
C2108      C2124   1.452       .  S
C2109      C2110   1.410       .  A
C2110      C2113   1.449       .  S
C2111      C2114   1.411       .  A
C2111      C2118   1.409       .  A
C2112      N2129   1.157       .  T
C2113      N2131   1.157       .  T
C2114      C2115   1.417       .  A
C2114      C2119   1.449       .  S
C2115      C2116   1.416       .  A
C2115      C2121   1.450       .  S
C2116      C2117   1.419       .  A
C2117      C2118   1.409       .  A
C2117      C2120   1.451       .  S
C2118      C2122   1.453       .  S
C2119      N2126   1.157       .  T
C2120      N2127   1.157       .  T
C2121      N2125   1.157       .  T
C2122      N2128   1.157       .  T
C2123      N2132   1.157       .  T
C2124      N2130   1.157       .  T
C2133      C2134   1.411       .  A
C2133      C2138   1.409       .  A
C2133      C2151   1.452       .  S
C2134      C2139   1.502       .  S
C2134      C2135   1.413       .  A
C2135      C2136   1.417       .  A
C2135      C2140   1.448       .  S
C2136      C2137   1.412       .  A
C2136      C2152   1.450       .  S
C2137      C2138   1.412       .  A
C2138      C2141   1.449       .  S
C2139      C2142   1.406       .  A
C2139      C2146   1.408       .  A
C2140      N2157   1.157       .  T
C2141      N2159   1.156       .  T
C2142      C2143   1.413       .  A
C2142      C2147   1.452       .  S
C2143      C2144   1.427       .  A
C2143      C2149   1.451       .  S
C2144      C2145   1.425       .  A
C2145      C2146   1.416       .  A
C2145      C2148   1.451       .  S
C2146      C2150   1.451       .  S
C2147      N2154   1.157       .  T
C2148      N2155   1.158       .  T
C2149      N2153   1.158       .  T
C2150      N2156   1.157       .  T
C2151      N2160   1.157       .  T
C2152      N2158   1.157       .  T
C2161      C2162   1.406       .  A
C2161      C2166   1.412       .  A
C2161      C2179   1.453       .  S
C2162      C2167   1.503       .  S
C2162      C2163   1.409       .  A
C2163      C2164   1.417       .  A
C2163      C2168   1.451       .  S
C2164      C2165   1.426       .  A
C2164      C2180   1.451       .  S
C2165      C2166   1.429       .  A
C2166      C2169   1.452       .  S
C2167      C2170   1.412       .  A
C2167      C2174   1.412       .  A
C2168      N2185   1.157       .  T
C2169      N2187   1.158       .  T
C2170      C2171   1.414       .  A
C2170      C2175   1.450       .  S
C2171      C2172   1.415       .  A
C2171      C2177   1.451       .  S
C2172      C2173   1.415       .  A
C2173      C2174   1.412       .  A
C2173      C2176   1.451       .  S
C2174      C2178   1.450       .  S
C2175      N2182   1.157       .  T
C2176      N2183   1.157       .  T
C2177      N2181   1.157       .  T
C2178      N2184   1.157       .  T
C2179      N2188   1.157       .  T
C2180      N2186   1.158       .  T
C2189      C2190   1.413       .  A
C2189      C2194   1.417       .  A
C2189      C2207   1.450       .  S
C2190      C2195   1.506       .  S
C2190      C2191   1.411       .  A
C2191      C2192   1.411       .  A
C2191      C2196   1.452       .  S
C2192      C2193   1.417       .  A
C2192      C2208   1.450       .  S
C2193      C2194   1.415       .  A
C2194      C2197   1.448       .  S
C2195      C2198   1.410       .  A
C2195      C2202   1.411       .  A
C2196      N2213   1.157       .  T
C2197      N2215   1.157       .  T
C2198      C2199   1.412       .  A
C2198      C2203   1.452       .  S
C2199      C2200   1.422       .  A
C2199      C2205   1.452       .  S
C2200      C2201   1.422       .  A
C2201      C2202   1.417       .  A
C2201      C2204   1.450       .  S
C2202      C2206   1.450       .  S
C2203      N2210   1.157       .  T
C2204      N2211   1.157       .  T
C2205      N2209   1.157       .  T
C2206      N2212   1.157       .  T
C2207      N2216   1.157       .  T
C2208      N2214   1.157       .  T
C2217      C2218   1.413       .  A
C2217      C2222   1.413       .  A
C2217      C2235   1.450       .  S
C2218      C2223   1.502       .  S
C2218      C2219   1.413       .  A
C2219      C2220   1.412       .  A
C2219      C2224   1.451       .  S
C2220      C2221   1.412       .  A
C2220      C2236   1.451       .  S
C2221      C2222   1.412       .  A
C2222      C2225   1.451       .  S
C2223      C2226   1.411       .  A
C2223      C2230   1.410       .  A
C2224      N2241   1.157       .  T
C2225      N2243   1.157       .  T
C2226      C2227   1.412       .  A
C2226      C2231   1.452       .  S
C2227      C2228   1.419       .  A
C2227      C2233   1.452       .  S
C2228      C2229   1.418       .  A
C2229      C2230   1.414       .  A
C2229      C2232   1.451       .  S
C2230      C2234   1.450       .  S
C2231      N2238   1.157       .  T
C2232      N2239   1.158       .  T
C2233      N2237   1.157       .  T
C2234      N2240   1.157       .  T
C2235      N2244   1.157       .  T
C2236      N2242   1.157       .  T
C2245      C2246   1.408       .  A
C2245      C2250   1.411       .  A
C2245      C2263   1.452       .  S
C2246      C2251   1.495       .  S
C2246      C2247   1.408       .  A
C2247      C2248   1.411       .  A
C2247      C2252   1.450       .  S
C2248      C2249   1.417       .  A
C2248      C2264   1.450       .  S
C2249      C2250   1.422       .  A
C2250      C2253   1.452       .  S
C2251      C2254   1.410       .  A
C2251      C2258   1.410       .  A
C2252      N2269   1.157       .  T
C2253      N2271   1.158       .  T
C2254      C2255   1.412       .  A
C2254      C2259   1.450       .  S
C2255      C2256   1.414       .  A
C2255      C2261   1.450       .  S
C2256      C2257   1.416       .  A
C2257      C2258   1.409       .  A
C2257      C2260   1.452       .  S
C2258      C2262   1.452       .  S
C2259      N2266   1.157       .  T
C2260      N2267   1.157       .  T
C2261      N2265   1.157       .  T
C2262      N2268   1.157       .  T
C2263      N2272   1.157       .  T
C2264      N2270   1.157       .  T
C2273      C2274   1.410       .  A
C2273      C2278   1.409       .  A
C2273      C2291   1.452       .  S
C2274      C2279   1.504       .  S
C2274      C2275   1.413       .  A
C2275      C2276   1.418       .  A
C2275      C2280   1.449       .  S
C2276      C2277   1.414       .  A
C2276      C2292   1.450       .  S
C2277      C2278   1.414       .  A
C2278      C2281   1.450       .  S
C2279      C2282   1.411       .  A
C2279      C2286   1.409       .  A
C2280      N2297   1.157       .  T
C2281      N2299   1.156       .  T
C2282      C2283   1.419       .  A
C2282      C2287   1.449       .  S
C2283      C2284   1.420       .  A
C2283      C2289   1.450       .  S
C2284      C2285   1.423       .  A
C2285      C2286   1.409       .  A
C2285      C2288   1.452       .  S
C2286      C2290   1.454       .  S
C2287      N2294   1.157       .  T
C2288      N2295   1.158       .  T
C2289      N2293   1.157       .  T
C2290      N2296   1.157       .  T
C2291      N2300   1.157       .  T
C2292      N2298   1.157       .  T
C2301      C2302   1.411       .  A
C2301      C2306   1.417       .  A
C2301      C2319   1.449       .  S
C2302      C2307   1.503       .  S
C2302      C2303   1.410       .  A
C2303      C2304   1.410       .  A
C2303      C2308   1.453       .  S
C2304      C2305   1.420       .  A
C2304      C2320   1.451       .  S
C2305      C2306   1.417       .  A
C2306      C2309   1.450       .  S
C2307      C2310   1.407       .  A
C2307      C2314   1.409       .  A
C2308      N2325   1.157       .  T
C2309      N2327   1.157       .  T
C2310      C2311   1.410       .  A
C2310      C2315   1.453       .  S
C2311      C2312   1.428       .  A
C2311      C2317   1.452       .  S
C2312      C2313   1.425       .  A
C2313      C2314   1.418       .  A
C2313      C2316   1.450       .  S
C2314      C2318   1.450       .  S
C2315      N2322   1.157       .  T
C2316      N2323   1.158       .  T
C2317      N2321   1.158       .  T
C2318      N2324   1.157       .  T
C2319      N2328   1.157       .  T
C2320      N2326   1.157       .  T
C2329      C2330   1.411       .  A
C2329      C2334   1.412       .  A
C2329      C2347   1.452       .  S
C2330      C2335   1.503       .  S
C2330      C2331   1.412       .  A
C2331      C2332   1.416       .  A
C2331      C2336   1.449       .  S
C2332      C2333   1.414       .  A
C2332      C2348   1.450       .  S
C2333      C2334   1.418       .  A
C2334      C2337   1.452       .  S
C2335      C2338   1.412       .  A
C2335      C2342   1.411       .  A
C2336      N2353   1.157       .  T
C2337      N2355   1.157       .  T
C2338      C2339   1.415       .  A
C2338      C2343   1.449       .  S
C2339      C2340   1.412       .  A
C2339      C2345   1.449       .  S
C2340      C2341   1.416       .  A
C2341      C2342   1.412       .  A
C2341      C2344   1.451       .  S
C2342      C2346   1.451       .  S
C2343      N2350   1.157       .  T
C2344      N2351   1.157       .  T
C2345      N2349   1.157       .  T
C2346      N2352   1.157       .  T
C2347      N2356   1.157       .  T
C2348      N2354   1.157       .  T
C2357      C2358   1.410       .  A
C2357      C2362   1.409       .  A
C2357      C2375   1.451       .  S
C2358      C2363   1.493       .  S
C2358      C2359   1.411       .  A
C2359      C2360   1.410       .  A
C2359      C2364   1.450       .  S
C2360      C2361   1.410       .  A
C2360      C2376   1.451       .  S
C2361      C2362   1.411       .  A
C2362      C2365   1.450       .  S
C2363      C2366   1.408       .  A
C2363      C2370   1.408       .  A
C2364      N2381   1.157       .  T
C2365      N2383   1.157       .  T
C2366      C2367   1.410       .  A
C2366      C2371   1.451       .  S
C2367      C2368   1.419       .  A
C2367      C2373   1.452       .  S
C2368      C2369   1.418       .  A
C2369      C2370   1.410       .  A
C2369      C2372   1.451       .  S
C2370      C2374   1.451       .  S
C2371      N2378   1.157       .  T
C2372      N2379   1.157       .  T
C2373      N2377   1.157       .  T
C2374      N2380   1.157       .  T
C2375      N2384   1.157       .  T
C2376      N2382   1.157       .  T
C2385      C2386   1.412       .  A
C2385      C2390   1.415       .  A
C2385      C2403   1.449       .  S
C2386      C2391   1.498       .  S
C2386      C2387   1.410       .  A
C2387      C2388   1.408       .  A
C2387      C2392   1.453       .  S
C2388      C2389   1.415       .  A
C2388      C2404   1.449       .  S
C2389      C2390   1.414       .  A
C2390      C2393   1.450       .  S
C2391      C2394   1.412       .  A
C2391      C2398   1.411       .  A
C2392      N2409   1.157       .  T
C2393      N2411   1.157       .  T
C2394      C2395   1.416       .  A
C2394      C2399   1.449       .  S
C2395      C2396   1.413       .  A
C2395      C2401   1.449       .  S
C2396      C2397   1.415       .  A
C2397      C2398   1.406       .  A
C2397      C2400   1.452       .  S
C2398      C2402   1.453       .  S
C2399      N2406   1.157       .  T
C2400      N2407   1.157       .  T
C2401      N2405   1.157       .  T
C2402      N2408   1.157       .  T
C2403      N2412   1.157       .  T
C2404      N2410   1.156       .  T
C2413      C2414   1.409       .  A
C2413      C2418   1.415       .  A
C2413      C2431   1.451       .  S
C2414      C2419   1.501       .  S
C2414      C2415   1.409       .  A
C2415      C2416   1.409       .  A
C2415      C2420   1.453       .  S
C2416      C2417   1.424       .  A
C2416      C2432   1.451       .  S
C2417      C2418   1.427       .  A
C2418      C2421   1.451       .  S
C2419      C2422   1.408       .  A
C2419      C2426   1.408       .  A
C2420      N2437   1.157       .  T
C2421      N2439   1.158       .  T
C2422      C2423   1.410       .  A
C2422      C2427   1.453       .  S
C2423      C2424   1.426       .  A
C2423      C2429   1.450       .  S
C2424      C2425   1.426       .  A
C2425      C2426   1.414       .  A
C2425      C2428   1.450       .  S
C2426      C2430   1.451       .  S
C2427      N2434   1.157       .  T
C2428      N2435   1.157       .  T
C2429      N2433   1.156       .  T
C2430      N2436   1.157       .  T
C2431      N2440   1.157       .  T
C2432      N2438   1.157       .  T
C2441      C2442   1.409       .  A
C2441      C2446   1.409       .  A
C2441      C2459   1.449       .  S
C2442      C2447   1.487       .  S
C2442      C2443   1.410       .  A
C2443      C2444   1.406       .  A
C2443      C2448   1.451       .  S
C2444      C2445   1.409       .  A
C2444      C2460   1.450       .  S
C2445      C2446   1.410       .  A
C2446      C2449   1.451       .  S
C2447      C2450   1.411       .  A
C2447      C2454   1.410       .  A
C2448      N2465   1.157       .  T
C2449      N2467   1.157       .  T
C2450      C2451   1.403       .  A
C2450      C2455   1.452       .  S
C2451      C2452   1.409       .  A
C2451      C2457   1.453       .  S
C2452      C2453   1.412       .  A
C2453      C2454   1.411       .  A
C2453      C2456   1.450       .  S
C2454      C2458   1.449       .  S
C2455      N2462   1.157       .  T
C2456      N2463   1.157       .  T
C2457      N2461   1.157       .  T
C2458      N2464   1.157       .  T
C2459      N2468   1.157       .  T
C2460      N2466   1.157       .  T
C2469      C2470   1.409       .  A
C2469      C2474   1.409       .  A
C2469      C2487   1.453       .  S
C2470      C2475   1.505       .  S
C2470      C2471   1.413       .  A
C2471      C2472   1.421       .  A
C2471      C2476   1.448       .  S
C2472      C2473   1.416       .  A
C2472      C2488   1.449       .  S
C2473      C2474   1.420       .  A
C2474      C2477   1.453       .  S
C2475      C2478   1.413       .  A
C2475      C2482   1.412       .  A
C2476      N2493   1.157       .  T
C2477      N2495   1.157       .  T
C2478      C2479   1.413       .  A
C2478      C2483   1.451       .  S
C2479      C2480   1.412       .  A
C2479      C2485   1.449       .  S
C2480      C2481   1.413       .  A
C2481      C2482   1.416       .  A
C2481      C2484   1.450       .  S
C2482      C2486   1.449       .  S
C2483      N2490   1.157       .  T
C2484      N2491   1.157       .  T
C2485      N2489   1.157       .  T
C2486      N2492   1.157       .  T
C2487      N2496   1.157       .  T
C2488      N2494   1.157       .  T
C2497      C2498   1.412       .  A
C2497      C2502   1.410       .  A
C2497      C2515   1.451       .  S
C2498      C2503   1.499   1_554  S
C2498      C2499   1.412       .  A
C2499      C2500   1.413       .  A
C2499      C2504   1.450       .  S
C2500      C2501   1.412       .  A
C2500      C2516   1.450       .  S
C2501      C2502   1.412       .  A
C2502      C2505   1.450       .  S
C2503      C2506   1.409       .  A
C2503      C2510   1.408       .  A
C2504      N2521   1.157   1_554  T
C2505      N2523   1.157       .  T
C2506      C2507   1.413       .  A
C2506      C2511   1.451       .  S
C2507      C2508   1.422       .  A
C2507      C2513   1.452       .  S
C2508      C2509   1.423       .  A
C2509      C2510   1.412       .  A
C2509      C2512   1.451       .  S
C2510      C2514   1.452       .  S
C2511      N2518   1.157       .  T
C2512      N2519   1.158       .  T
C2513      N2517   1.157       .  T
C2514      N2520   1.157       .  T
C2515      N2524   1.157   1_554  T
C2516      N2522   1.157       .  T
C2525      C2526   1.411       .  A
C2525      C2530   1.408       .  A
C2525      C2543   1.453       .  S
C2526      C2531   1.505       .  S
C2526      C2527   1.415       .  A
C2527      C2528   1.419       .  A
C2527      C2532   1.449       .  S
C2528      C2529   1.415       .  A
C2528      C2544   1.449       .  S
C2529      C2530   1.417       .  A
C2530      C2533   1.450       .  S
C2531      C2534   1.415       .  A
C2531      C2538   1.413       .  A
C2532      N2549   1.157       .  T
C2533      N2551   1.156       .  T
C2534      C2535   1.416       .  A
C2534      C2539   1.449       .  S
C2535      C2536   1.412       .  A
C2535      C2541   1.450       .  S
C2536      C2537   1.413       .  A
C2537      C2538   1.411       .  A
C2537      C2540   1.450       .  S
C2538      C2542   1.451       .  S
C2539      N2546   1.157       .  T
C2540      N2547   1.157       .  T
C2541      N2545   1.157       .  T
C2542      N2548   1.157       .  T
C2543      N2552   1.158       .  T
C2544      N2550   1.157       .  T
C2553      C2554   1.407       .  A
C2553      C2558   1.412       .  A
C2553      C2571   1.451       .  S
C2554      C2559   1.492       .  S
C2554      C2555   1.406       .  A
C2555      C2556   1.408       .  A
C2555      C2560   1.453       .  S
C2556      C2557   1.420       .  A
C2556      C2572   1.447       .  S
C2557      C2558   1.424       .  A
C2558      C2561   1.452       .  S
C2559      C2562   1.410       .  A
C2559      C2566   1.411       .  A
C2560      N2577   1.157       .  T
C2561      N2579   1.157       .  T
C2562      C2563   1.403       .  A
C2562      C2567   1.452       .  S
C2563      C2564   1.414       .  A
C2563      C2569   1.453       .  S
C2564      C2565   1.414       .  A
C2565      C2566   1.413       .  A
C2565      C2568   1.451       .  S
C2566      C2570   1.449       .  S
C2567      N2574   1.157       .  T
C2568      N2575   1.158       .  T
C2569      N2573   1.157       .  T
C2570      N2576   1.157       .  T
C2571      N2580   1.158       .  T
C2572      N2578   1.156       .  T
C2581      C2582   1.411       .  A
C2581      C2586   1.409       .  A
C2581      C2599   1.452       .  S
C2582      C2587   1.506       .  S
C2582      C2583   1.415       .  A
C2583      C2584   1.419       .  A
C2583      C2588   1.449       .  S
C2584      C2585   1.413       .  A
C2584      C2600   1.449       .  S
C2585      C2586   1.416       .  A
C2586      C2589   1.452       .  S
C2587      C2590   1.412       .  A
C2587      C2594   1.413       .  A
C2588      N2605   1.157       .  T
C2589      N2607   1.157       .  T
C2590      C2591   1.414       .  A
C2590      C2595   1.450       .  S
C2591      C2592   1.414       .  A
C2591      C2597   1.449       .  S
C2592      C2593   1.416       .  A
C2593      C2594   1.414       .  A
C2593      C2596   1.451       .  S
C2594      C2598   1.450       .  S
C2595      N2602   1.157       .  T
C2596      N2603   1.157       .  T
C2597      N2601   1.157       .  T
C2598      N2604   1.157       .  T
C2599      N2608   1.157       .  T
C2600      N2606   1.157       .  T
C2609      C2610   1.409       .  A
C2609      C2614   1.414       .  A
C2609      C2627   1.450       .  S
C2610      C2615   1.493       .  S
C2610      C2611   1.410       .  A
C2611      C2612   1.405       .  A
C2611      C2616   1.454       .  S
C2612      C2613   1.419       .  A
C2612      C2628   1.453       .  S
C2613      C2614   1.419       .  A
C2614      C2617   1.450       .  S
C2615      C2618   1.412       .  A
C2615      C2622   1.411       .  A
C2616      N2633   1.157       .  T
C2617      N2635   1.158       .  T
C2618      C2619   1.410       .  A
C2618      C2623   1.450       .  S
C2619      C2620   1.410       .  A
C2619      C2625   1.451       .  S
C2620      C2621   1.410       .  A
C2621      C2622   1.408       .  A
C2621      C2624   1.450       .  S
C2622      C2626   1.450       .  S
C2623      N2630   1.157       .  T
C2624      N2631   1.157       .  T
C2625      N2629   1.157       .  T
C2626      N2632   1.157       .  T
C2627      N2636   1.157       .  T
C2628      N2634   1.157       .  T
C2637      C2638   1.410       .  A
C2637      C2642   1.409       .  A
C2637      C2655   1.452       .  S
C2638      C2643   1.501       .  S
C2638      C2639   1.411       .  A
C2639      C2640   1.418       .  A
C2639      C2644   1.449       .  S
C2640      C2641   1.416       .  A
C2640      C2656   1.448       .  S
C2641      C2642   1.417       .  A
C2642      C2645   1.450       .  S
C2643      C2646   1.407       .  A
C2643      C2650   1.411       .  A
C2644      N2661   1.157       .  T
C2645      N2663   1.157       .  T
C2646      C2647   1.409       .  A
C2646      C2651   1.453       .  S
C2647      C2648   1.423       .  A
C2647      C2653   1.451       .  S
C2648      C2649   1.417       .  A
C2649      C2650   1.419       .  A
C2649      C2652   1.449       .  S
C2650      C2654   1.449       .  S
C2651      N2658   1.157       .  T
C2652      N2659   1.157       .  T
C2653      N2657   1.157       .  T
C2654      N2660   1.157       .  T
C2655      N2664   1.157       .  T
C2656      N2662   1.157       .  T
C2665      C2666   1.409       .  A
C2665      C2670   1.411       .  A
C2665      C2683   1.451       .  S
C2666      C2671   1.493       .  S
C2666      C2667   1.407       .  A
C2667      C2668   1.409       .  A
C2667      C2672   1.450       .  S
C2668      C2669   1.418       .  A
C2668      C2684   1.450       .  S
C2669      C2670   1.421       .  A
C2670      C2673   1.451       .  S
C2671      C2674   1.410       .  A
C2671      C2678   1.411       .  A
C2672      N2689   1.157       .  T
C2673      N2691   1.157       .  T
C2674      C2675   1.410       .  A
C2674      C2679   1.449       .  S
C2675      C2676   1.412       .  A
C2675      C2681   1.450       .  S
C2676      C2677   1.414       .  A
C2677      C2678   1.409       .  A
C2677      C2680   1.452       .  S
C2678      C2682   1.452       .  S
C2679      N2686   1.157       .  T
C2680      N2687   1.157       .  T
C2681      N2685   1.157       .  T
C2682      N2688   1.157       .  T
C2683      N2692   1.157       .  T
C2684      N2690   1.157       .  T
C2693      C2694   1.410       .  A
C2693      C2698   1.411       .  A
C2693      C2711   1.451       .  S
C2694      C2699   1.503       .  S
C2694      C2695   1.412       .  A
C2695      C2696   1.415       .  A
C2695      C2700   1.450       .  S
C2696      C2697   1.414       .  A
C2696      C2712   1.449       .  S
C2697      C2698   1.414       .  A
C2698      C2701   1.448       .  S
C2699      C2702   1.410       .  A
C2699      C2706   1.409       .  A
C2700      N2717   1.157       .  T
C2701      N2719   1.156       .  T
C2702      C2703   1.418       .  A
C2702      C2707   1.450       .  S
C2703      C2704   1.422       .  A
C2703      C2709   1.450       .  S
C2704      C2705   1.422       .  A
C2705      C2706   1.410       .  A
C2705      C2708   1.452       .  S
C2706      C2710   1.453       .  S
C2707      N2714   1.157       .  T
C2708      N2715   1.157       .  T
C2709      N2713   1.157       .  T
C2710      N2716   1.157       .  T
C2711      N2720   1.157       .  T
C2712      N2718   1.157       .  T
C2721      C2722   1.413       .  A
C2721      C2726   1.414       .  A
C2721      C2739   1.450       .  S
C2722      C2727   1.502       .  S
C2722      C2723   1.411       .  A
C2723      C2724   1.412       .  A
C2723      C2728   1.451       .  S
C2724      C2725   1.415       .  A
C2724      C2740   1.451       .  S
C2725      C2726   1.411       .  A
C2726      C2729   1.448       .  S
C2727      C2730   1.409       .  A
C2727      C2734   1.412       .  A
C2728      N2745   1.157       .  T
C2729      N2747   1.157       .  T
C2730      C2731   1.410       .  A
C2730      C2735   1.453       .  S
C2731      C2732   1.423       .  A
C2731      C2737   1.453       .  S
C2732      C2733   1.417       .  A
C2733      C2734   1.417       .  A
C2733      C2736   1.450       .  S
C2734      C2738   1.449       .  S
C2735      N2742   1.157       .  T
C2736      N2743   1.158       .  T
C2737      N2741   1.157       .  T
C2738      N2744   1.157       .  T
C2739      N2748   1.157       .  T
C2740      N2746   1.157       .  T
C2749      C2750   1.411       .  A
C2749      C2754   1.413       .  A
C2749      C2767   1.451       .  S
C2750      C2755   1.500   1_556  S
C2750      C2751   1.410       .  A
C2751      C2752   1.410       .  A
C2751      C2756   1.452       .  S
C2752      C2753   1.420       .  A
C2752      C2768   1.451       .  S
C2753      C2754   1.419       .  A
C2754      C2757   1.452       .  S
C2755      C2758   1.411       .  A
C2755      C2762   1.410       .  A
C2756      N2773   1.157       .  T
C2757      N2775   1.158       .  T
C2758      C2759   1.412       .  A
C2758      C2763   1.452       .  S
C2759      C2760   1.416       .  A
C2759      C2765   1.448       .  S
C2760      C2761   1.418       .  A
C2761      C2762   1.411       .  A
C2761      C2764   1.452       .  S
C2762      C2766   1.451       .  S
C2763      N2770   1.157   1_554  T
C2764      N2771   1.157       .  T
C2765      N2769   1.156       .  T
C2766      N2772   1.157   1_554  T
C2767      N2776   1.157       .  T
C2768      N2774   1.157       .  T
C2777      C2778   1.405       .  A
C2777      C2782   1.407       .  A
C2777      C2795   1.452       .  S
C2778      C2783   1.487       .  S
C2778      C2779   1.408       .  A
C2779      C2780   1.410       .  A
C2779      C2784   1.452       .  S
C2780      C2781   1.419       .  A
C2780      C2796   1.450       .  S
C2781      C2782   1.420       .  A
C2782      C2785   1.450       .  S
C2783      C2786   1.408       .  A
C2783      C2790   1.408       .  A
C2784      N2801   1.157       .  T
C2785      N2803   1.157       .  T
C2786      C2787   1.412       .  A
C2786      C2791   1.449       .  S
C2787      C2788   1.416       .  A
C2787      C2793   1.449       .  S
C2788      C2789   1.418       .  A
C2789      C2790   1.401       .  A
C2789      C2792   1.453       .  S
C2790      C2794   1.454       .  S
C2791      N2798   1.157       .  T
C2792      N2799   1.158       .  T
C2793      N2797   1.157       .  T
C2794      N2800   1.157       .  T
C2795      N2804   1.157       .  T
C2796      N2802   1.157       .  T
C2805      C2806   1.409       .  A
C2805      C2810   1.407       .  A
C2805      C2823   1.452       .  S
C2806      C2811   1.498       .  S
C2806      C2807   1.411       .  A
C2807      C2808   1.417       .  A
C2807      C2812   1.449       .  S
C2808      C2809   1.417       .  A
C2808      C2824   1.448       .  S
C2809      C2810   1.414       .  A
C2810      C2813   1.448       .  S
C2811      C2814   1.413       .  A
C2811      C2818   1.411       .  A
C2812      N2829   1.157       .  T
C2813      N2831   1.156       .  T
C2814      C2815   1.415       .  A
C2814      C2819   1.449       .  S
C2815      C2816   1.410       .  A
C2815      C2821   1.449       .  S
C2816      C2817   1.410       .  A
C2817      C2818   1.408       .  A
C2817      C2820   1.450       .  S
C2818      C2822   1.450       .  S
C2819      N2826   1.157       .  T
C2820      N2827   1.157       .  T
C2821      N2825   1.157       .  T
C2822      N2828   1.157       .  T
C2823      N2832   1.157       .  T
C2824      N2830   1.157       .  T
C2833      C2834   1.413       .  A
C2833      C2838   1.418       .  A
C2833      C2851   1.449       .  S
C2834      C2839   1.506       .  S
C2834      C2835   1.410       .  A
C2835      C2836   1.409       .  A
C2835      C2840   1.453       .  S
C2836      C2837   1.421       .  A
C2836      C2852   1.453       .  S
C2837      C2838   1.417       .  A
C2838      C2841   1.450       .  S
C2839      C2842   1.412       .  A
C2839      C2846   1.412       .  A
C2840      N2857   1.157       .  T
C2841      N2859   1.158       .  T
C2842      C2843   1.414       .  A
C2842      C2847   1.451       .  S
C2843      C2844   1.419       .  A
C2843      C2849   1.451       .  S
C2844      C2845   1.419       .  A
C2845      C2846   1.415       .  A
C2845      C2848   1.451       .  S
C2846      C2850   1.451       .  S
C2847      N2854   1.157       .  T
C2848      N2855   1.157       .  T
C2849      N2853   1.157       .  T
C2850      N2856   1.157       .  T
C2851      N2860   1.157       .  T
C2852      N2858   1.158       .  T
C2861      C2862   1.409       .  A
C2861      C2866   1.404       .  A
C2861      C2879   1.453       .  S
C2862      C2867   1.494       .  S
C2862      C2863   1.411       .  A
C2863      C2864   1.417       .  A
C2863      C2868   1.448       .  S
C2864      C2865   1.416       .  A
C2864      C2880   1.451       .  S
C2865      C2866   1.418       .  A
C2866      C2869   1.453       .  S
C2867      C2870   1.411       .  A
C2867      C2874   1.411       .  A
C2868      N2885   1.157       .  T
C2869      N2887   1.157       .  T
C2870      C2871   1.413       .  A
C2870      C2875   1.449       .  S
C2871      C2872   1.412       .  A
C2871      C2877   1.450       .  S
C2872      C2873   1.411       .  A
C2873      C2874   1.408       .  A
C2873      C2876   1.450       .  S
C2874      C2878   1.452       .  S
C2875      N2882   1.157       .  T
C2876      N2883   1.157       .  T
C2877      N2881   1.157       .  T
C2878      N2884   1.157       .  T
C2879      N2888   1.157       .  T
C2880      N2886   1.157       .  T
C2889      C2890   1.408       .  A
C2889      C2894   1.409       .  A
C2889      C2907   1.451       .  S
C2890      C2895   1.493       .  S
C2890      C2891   1.410       .  A
C2891      C2892   1.412       .  A
C2891      C2896   1.451       .  S
C2892      C2893   1.417       .  A
C2892      C2908   1.451       .  S
C2893      C2894   1.414       .  A
C2894      C2897   1.448       .  S
C2895      C2898   1.410       .  A
C2895      C2902   1.409       .  A
C2896      N2913   1.157       .  T
C2897      N2915   1.156       .  T
C2898      C2899   1.416       .  A
C2898      C2903   1.449       .  S
C2899      C2900   1.416       .  A
C2899      C2905   1.449       .  S
C2900      C2901   1.418       .  A
C2901      C2902   1.404       .  A
C2901      C2904   1.453       .  S
C2902      C2906   1.454       .  S
C2903      N2910   1.157       .  T
C2904      N2911   1.157       .  T
C2905      N2909   1.157       .  T
C2906      N2912   1.157       .  T
C2907      N2916   1.157       .  T
C2908      N2914   1.158       .  T
C2917      C2918   1.414       .  A
C2917      C2922   1.419       .  A
C2917      C2935   1.449       .  S
C2918      C2923   1.507       .  S
C2918      C2919   1.411       .  A
C2919      C2920   1.409       .  A
C2919      C2924   1.453       .  S
C2920      C2921   1.418       .  A
C2920      C2936   1.452       .  S
C2921      C2922   1.415       .  A
C2922      C2925   1.450       .  S
C2923      C2926   1.410       .  A
C2923      C2930   1.409       .  A
C2924      N2941   1.157       .  T
C2925      N2943   1.157       .  T
C2926      C2927   1.413       .  A
C2926      C2931   1.452       .  S
C2927      C2928   1.424       .  A
C2927      C2933   1.451       .  S
C2928      C2929   1.425       .  A
C2929      C2930   1.418       .  A
C2929      C2932   1.451       .  S
C2930      C2934   1.451       .  S
C2931      N2938   1.157       .  T
C2932      N2939   1.158       .  T
C2933      N2937   1.158       .  T
C2934      N2940   1.157       .  T
C2935      N2944   1.157       .  T
C2936      N2942   1.157       .  T
C2945      C2946   1.414       .  A
C2945      C2950   1.414       .  A
C2945      C2963   1.449       .  S
C2946      C2951   1.504       .  S
C2946      C2947   1.413       .  A
C2947      C2948   1.412       .  A
C2947      C2952   1.450       .  S
C2948      C2949   1.411       .  A
C2948      C2964   1.450       .  S
C2949      C2950   1.410       .  A
C2950      C2953   1.450       .  S
C2951      C2954   1.412       .  A
C2951      C2958   1.409       .  A
C2952      N2969   1.157       .  T
C2953      N2971   1.157       .  T
C2954      C2955   1.419       .  A
C2954      C2959   1.449       .  S
C2955      C2956   1.419       .  A
C2955      C2961   1.449       .  S
C2956      C2957   1.422       .  A
C2957      C2958   1.410       .  A
C2957      C2960   1.452       .  S
C2958      C2962   1.453       .  S
C2959      N2966   1.157       .  T
C2960      N2967   1.157       .  T
C2961      N2965   1.157       .  T
C2962      N2968   1.157       .  T
C2963      N2972   1.157       .  T
C2964      N2970   1.157       .  T
C2973      C2974   1.412       .  A
C2973      C2978   1.409       .  A
C2973      C2991   1.453       .  S
C2974      C2979   1.501       .  S
C2974      C2975   1.414       .  A
C2975      C2976   1.414       .  A
C2975      C2980   1.450       .  S
C2976      C2977   1.413       .  A
C2976      C2992   1.450       .  S
C2977      C2978   1.415       .  A
C2978      C2981   1.451       .  S
C2979      C2982   1.410       .  A
C2979      C2986   1.410       .  A
C2980      N2997   1.157       .  T
C2981      N2999   1.156       .  T
C2982      C2983   1.410       .  A
C2982      C2987   1.452       .  S
C2983      C2984   1.419       .  A
C2983      C2989   1.449       .  S
C2984      C2985   1.422       .  A
C2985      C2986   1.413       .  A
C2985      C2988   1.451       .  S
C2986      C2990   1.451       .  S
C2987      N2994   1.157       .  T
C2988      N2995   1.158       .  T
C2989      N2993   1.156       .  T
C2990      N2996   1.157       .  T
C2991      N3000   1.157       .  T
C2992      N2998   1.157       .  T
C3001      C3002   1.407       .  A
C3001      C3006   1.414       .  A
C3001      C3019   1.451       .  S
C3002      C3007   1.498   1_554  S
C3002      C3003   1.405       .  A
C3003      C3004   1.412       .  A
C3003      C3008   1.453       .  S
C3004      C3005   1.430       .  A
C3004      C3020   1.452       .  S
C3005      C3006   1.427       .  A
C3006      C3009   1.452       .  S
C3007      C3010   1.411       .  A
C3007      C3014   1.409       .  A
C3008      N3025   1.157   1_554  T
C3009      N3027   1.157       .  T
C3010      C3011   1.413       .  A
C3010      C3015   1.450       .  S
C3011      C3012   1.415       .  A
C3011      C3017   1.451       .  S
C3012      C3013   1.417       .  A
C3013      C3014   1.410       .  A
C3013      C3016   1.452       .  S
C3014      C3018   1.451       .  S
C3015      N3022   1.157       .  T
C3016      N3023   1.157       .  T
C3017      N3021   1.157       .  T
C3018      N3024   1.157       .  T
C3019      N3028   1.158   1_554  T
C3020      N3026   1.158       .  T
C3029      C3030   1.409       .  A
C3029      C3034   1.412       .  A
C3029      C3047   1.449       .  S
C3030      C3035   1.491       .  S
C3030      C3031   1.411       .  A
C3031      C3032   1.405       .  A
C3031      C3036   1.452       .  S
C3032      C3033   1.414       .  A
C3032      C3048   1.453       .  S
C3033      C3034   1.415       .  A
C3034      C3037   1.449       .  S
C3035      C3038   1.409       .  A
C3035      C3042   1.411       .  A
C3036      N3053   1.157       .  T
C3037      N3055   1.157       .  T
C3038      C3039   1.407       .  A
C3038      C3043   1.450       .  S
C3039      C3040   1.412       .  A
C3039      C3045   1.450       .  S
C3040      C3041   1.412       .  A
C3041      C3042   1.410       .  A
C3041      C3044   1.450       .  S
C3042      C3046   1.450       .  S
C3043      N3050   1.157       .  T
C3044      N3051   1.157       .  T
C3045      N3049   1.157       .  T
C3046      N3052   1.157       .  T
C3047      N3056   1.157       .  T
C3048      N3054   1.157       .  T
C3057      C3058   1.410       .  A
C3057      C3062   1.418       .  A
C3057      C3075   1.449       .  S
C3058      C3063   1.500       .  S
C3058      C3059   1.408       .  A
C3059      C3060   1.408       .  A
C3059      C3064   1.454       .  S
C3060      C3061   1.422       .  A
C3060      C3076   1.451       .  S
C3061      C3062   1.420       .  A
C3062      C3065   1.449       .  S
C3063      C3066   1.412       .  A
C3063      C3070   1.410       .  A
C3064      N3081   1.157       .  T
C3065      N3083   1.158       .  T
C3066      C3067   1.415       .  A
C3066      C3071   1.449       .  S
C3067      C3068   1.413       .  A
C3067      C3073   1.450       .  S
C3068      C3069   1.413       .  A
C3069      C3070   1.410       .  A
C3069      C3072   1.449       .  S
C3070      C3074   1.452       .  S
C3071      N3078   1.157       .  T
C3072      N3079   1.156       .  T
C3073      N3077   1.157       .  T
C3074      N3080   1.157       .  T
C3075      N3084   1.157       .  T
C3076      N3082   1.157       .  T
C3085      C3086   1.412       .  A
C3085      C3090   1.411       .  A
C3085      C3103   1.450       .  S
C3086      C3091   1.502       .  S
C3086      C3087   1.412       .  A
C3087      C3088   1.415       .  A
C3087      C3092   1.450       .  S
C3088      C3089   1.415       .  A
C3088      C3104   1.450       .  S
C3089      C3090   1.412       .  A
C3090      C3093   1.450       .  S
C3091      C3094   1.408       .  A
C3091      C3098   1.412       .  A
C3092      N3109   1.157       .  T
C3093      N3111   1.157       .  T
C3094      C3095   1.409       .  A
C3094      C3099   1.453       .  S
C3095      C3096   1.423       .  A
C3095      C3101   1.453       .  S
C3096      C3097   1.417       .  A
C3097      C3098   1.419       .  A
C3097      C3100   1.449       .  S
C3098      C3102   1.449       .  S
C3099      N3106   1.157       .  T
C3100      N3107   1.157       .  T
C3101      N3105   1.158       .  T
C3102      N3108   1.157       .  T
C3103      N3112   1.157       .  T
C3104      N3110   1.157       .  T
C3113      C3114   1.412       .  A
C3113      C3118   1.410       .  A
C3113      C3131   1.451       .  S
C3114      C3119   1.506       .  S
C3114      C3115   1.413       .  A
C3115      C3116   1.417       .  A
C3115      C3120   1.450       .  S
C3116      C3117   1.418       .  A
C3116      C3132   1.450       .  S
C3117      C3118   1.418       .  A
C3118      C3121   1.452       .  S
C3119      C3122   1.410       .  A
C3119      C3126   1.412       .  A
C3120      N3137   1.157       .  T
C3121      N3139   1.157       .  T
C3122      C3123   1.416       .  A
C3122      C3127   1.452       .  S
C3123      C3124   1.424       .  A
C3123      C3129   1.450       .  S
C3124      C3125   1.418       .  A
C3125      C3126   1.413       .  A
C3125      C3128   1.449       .  S
C3126      C3130   1.451       .  S
C3127      N3134   1.157       .  T
C3128      N3135   1.155       .  T
C3129      N3133   1.158       .  T
C3130      N3136   1.158       .  T
C3131      N3140   1.157       .  T
C3132      N3138   1.157       .  T
C3141      C3142   1.410       .  A
C3141      C3146   1.400       .  A
C3141      C3159   1.452       .  S
C3142      C3147   1.486       .  S
C3142      C3143   1.411       .  A
C3143      C3144   1.412       .  A
C3143      C3148   1.449       .  S
C3144      C3145   1.411       .  A
C3144      C3160   1.449       .  S
C3145      C3146   1.412       .  A
C3146      C3149   1.454       .  S
C3147      C3150   1.410       .  A
C3147      C3154   1.412       .  A
C3148      N3165   1.157       .  T
C3149      N3167   1.158       .  T
C3150      C3151   1.408       .  A
C3150      C3155   1.450       .  S
C3151      C3152   1.410       .  A
C3151      C3157   1.451       .  S
C3152      C3153   1.408       .  A
C3153      C3154   1.406       .  A
C3153      C3156   1.451       .  S
C3154      C3158   1.451       .  S
C3155      N3162   1.157       .  T
C3156      N3163   1.157       .  T
C3157      N3161   1.157       .  T
C3158      N3164   1.157       .  T
C3159      N3168   1.157       .  T
C3160      N3166   1.157       .  T
C3169      C3170   1.410       .  A
C3169      C3174   1.410       .  A
C3169      C3187   1.452       .  S
C3170      C3175   1.501       .  S
C3170      C3171   1.413       .  A
C3171      C3172   1.414       .  A
C3171      C3176   1.450       .  S
C3172      C3173   1.415       .  A
C3172      C3188   1.450       .  S
C3173      C3174   1.419       .  A
C3174      C3177   1.452       .  S
C3175      C3178   1.409       .  A
C3175      C3182   1.413       .  A
C3176      N3193   1.157       .  T
C3177      N3195   1.157       .  T
C3178      C3179   1.407       .  A
C3178      C3183   1.454       .  S
C3179      C3180   1.424       .  A
C3179      C3185   1.454       .  S
C3180      C3181   1.416       .  A
C3181      C3182   1.416       .  A
C3181      C3184   1.451       .  S
C3182      C3186   1.450       .  S
C3183      N3190   1.157       .  T
C3184      N3191   1.157       .  T
C3185      N3189   1.158       .  T
C3186      N3192   1.157       .  T
C3187      N3196   1.157       .  T
C3188      N3194   1.157       .  T
C3197      C3198   1.411       .  A
C3197      C3202   1.410       .  A
C3197      C3215   1.451       .  S
C3198      C3203   1.498       .  S
C3198      C3199   1.411       .  A
C3199      C3200   1.413       .  A
C3199      C3204   1.450       .  S
C3200      C3201   1.416       .  A
C3200      C3216   1.451       .  S
C3201      C3202   1.414       .  A
C3202      C3205   1.451       .  S
C3203      C3206   1.412       .  A
C3203      C3210   1.410       .  A
C3204      N3221   1.157       .  T
C3205      N3223   1.157       .  T
C3206      C3207   1.416       .  A
C3206      C3211   1.449       .  S
C3207      C3208   1.414       .  A
C3207      C3213   1.450       .  S
C3208      C3209   1.417       .  A
C3209      C3210   1.408       .  A
C3209      C3212   1.451       .  S
C3210      C3214   1.453       .  S
C3211      N3218   1.157       .  T
C3212      N3219   1.157       .  T
C3213      N3217   1.157       .  T
C3214      N3220   1.157       .  T
C3215      N3224   1.157       .  T
C3216      N3222   1.157       .  T
C3225      C3226   1.412       .  A
C3225      C3230   1.412       .  A
C3225      C3243   1.450       .  S
C3226      C3231   1.504       .  S
C3226      C3227   1.414       .  A
C3227      C3228   1.416       .  A
C3227      C3232   1.449       .  S
C3228      C3229   1.410       .  A
C3228      C3244   1.449       .  S
C3229      C3230   1.413       .  A
C3230      C3233   1.452       .  S
C3231      C3234   1.410       .  A
C3231      C3238   1.411       .  A
C3232      N3249   1.157       .  T
C3233      N3251   1.157       .  T
C3234      C3235   1.411       .  A
C3234      C3239   1.452       .  S
C3235      C3236   1.420       .  A
C3235      C3241   1.451       .  S
C3236      C3237   1.419       .  A
C3237      C3238   1.419       .  A
C3237      C3240   1.450       .  S
C3238      C3242   1.449       .  S
C3239      N3246   1.157       .  T
C3240      N3247   1.157       .  T
C3241      N3245   1.157       .  T
C3242      N3248   1.157       .  T
C3243      N3252   1.157       .  T
C3244      N3250   1.157       .  T
C3253      C3254   1.415       .  A
C3253      C3258   1.417       .  A
C3253      C3271   1.449       .  S
C3254      C3259   1.507       .  S
C3254      C3255   1.414       .  A
C3255      C3256   1.412       .  A
C3255      C3260   1.452       .  S
C3256      C3257   1.413       .  A
C3256      C3272   1.452       .  S
C3257      C3258   1.413       .  A
C3258      C3261   1.450       .  S
C3259      C3262   1.412       .  A
C3259      C3266   1.412       .  A
C3260      N3277   1.157       .  T
C3261      N3279   1.157       .  T
C3262      C3263   1.416       .  A
C3262      C3267   1.451       .  S
C3263      C3264   1.420       .  A
C3263      C3269   1.451       .  S
C3264      C3265   1.418       .  A
C3265      C3266   1.414       .  A
C3265      C3268   1.451       .  S
C3266      C3270   1.451       .  S
C3267      N3274   1.157       .  T
C3268      N3275   1.157       .  T
C3269      N3273   1.157       .  T
C3270      N3276   1.157       .  T
C3271      N3280   1.157       .  T
C3272      N3278   1.157       .  T
C3281      C3282   1.410       .  A
C3281      C3286   1.407       .  A
C3281      C3299   1.453       .  S
C3282      C3287   1.499       .  S
C3282      C3283   1.411       .  A
C3283      C3284   1.415       .  A
C3283      C3288   1.449       .  S
C3284      C3285   1.415       .  A
C3284      C3300   1.449       .  S
C3285      C3286   1.421       .  A
C3286      C3289   1.453       .  S
C3287      C3290   1.408       .  A
C3287      C3294   1.405       .  A
C3288      N3305   1.157       .  T
C3289      N3307   1.158       .  T
C3290      C3291   1.416       .  A
C3290      C3295   1.450       .  S
C3291      C3292   1.424       .  A
C3291      C3297   1.450       .  S
C3292      C3293   1.430       .  A
C3293      C3294   1.409       .  A
C3293      C3296   1.452       .  S
C3294      C3298   1.454       .  S
C3295      N3302   1.157       .  T
C3296      N3303   1.158       .  T
C3297      N3301   1.158       .  T
C3298      N3304   1.157       .  T
C3299      N3308   1.157       .  T
C3300      N3306   1.157       .  T
C3309      C3310   1.405       .  A
C3309      C3314   1.407       .  A
C3309      C3327   1.454       .  S
C3310      C3315   1.493   1_554  S
C3310      C3311   1.408       .  A
C3311      C3312   1.414       .  A
C3311      C3316   1.450       .  S
C3312      C3313   1.420       .  A
C3312      C3328   1.450       .  S
C3313      C3314   1.427       .  A
C3314      C3317   1.452       .  S
C3315      C3318   1.410       .  A
C3315      C3322   1.409       .  A
C3316      N3333   1.157   1_554  T
C3317      N3335   1.158       .  T
C3318      C3319   1.409       .  A
C3318      C3323   1.451       .  S
C3319      C3320   1.415       .  A
C3319      C3325   1.451       .  S
C3320      C3321   1.414       .  A
C3321      C3322   1.409       .  A
C3321      C3324   1.451       .  S
C3322      C3326   1.451       .  S
C3323      N3330   1.157       .  T
C3324      N3331   1.157       .  T
C3325      N3329   1.157       .  T
C3326      N3332   1.157       .  T
C3327      N3336   1.157   1_554  T
C3328      N3334   1.157       .  T
C3337      C3338   1.408       .  A
C3337      C3342   1.410       .  A
C3337      C3355   1.454       .  S
C3338      C3343   1.504       .  S
C3338      C3339   1.412       .  A
C3339      C3340   1.419       .  A
C3339      C3344   1.449       .  S
C3340      C3341   1.419       .  A
C3340      C3356   1.449       .  S
C3341      C3342   1.424       .  A
C3342      C3345   1.451       .  S
C3343      C3346   1.407       .  A
C3343      C3350   1.413       .  A
C3344      N3361   1.157       .  T
C3345      N3363   1.157       .  T
C3346      C3347   1.408       .  A
C3346      C3351   1.453       .  S
C3347      C3348   1.424       .  A
C3347      C3353   1.451       .  S
C3348      C3349   1.417       .  A
C3349      C3350   1.420       .  A
C3349      C3352   1.449       .  S
C3350      C3354   1.449       .  S
C3351      N3358   1.157       .  T
C3352      N3359   1.157       .  T
C3353      N3357   1.157       .  T
C3354      N3360   1.157       .  T
C3355      N3364   1.157       .  T
C3356      N3362   1.157       .  T
C3365      C3366   1.410       .  A
C3365      C3370   1.406       .  A
C3365      C3383   1.450       .  S
C3366      C3371   1.489       .  S
C3366      C3367   1.410       .  A
C3367      C3368   1.409       .  A
C3367      C3372   1.450       .  S
C3368      C3369   1.415       .  A
C3368      C3384   1.451       .  S
C3369      C3370   1.409       .  A
C3370      C3373   1.450       .  S
C3371      C3374   1.410       .  A
C3371      C3378   1.413       .  A
C3372      N3389   1.157       .  T
C3373      N3391   1.157       .  T
C3374      C3375   1.411       .  A
C3374      C3379   1.449       .  S
C3375      C3376   1.411       .  A
C3375      C3381   1.450       .  S
C3376      C3377   1.409       .  A
C3377      C3378   1.404       .  A
C3377      C3380   1.452       .  S
C3378      C3382   1.452       .  S
C3379      N3386   1.157       .  T
C3380      N3387   1.157       .  T
C3381      N3385   1.157       .  T
C3382      N3388   1.157       .  T
C3383      N3392   1.157       .  T
C3384      N3390   1.158       .  T
