geometry optimzed in LAMMPS
_audit_creation_date              2020-12-01 
_audit_creation_method            'lammps2cif' 
_symmetry_space_group_name_H-M    'P1' 
_symmetry_Int_Tables_number       1 
_symmetry_cell_setting            triclinic 
loop_ 
_symmetry_equiv_pos_as_xyz 
  x,y,z 
_cell_length_a                    22.72182703 
_cell_length_b                    22.722103302805774 
_cell_length_c                    33.7112999812091 
_cell_angle_alpha                 90.0003228846198 
_cell_angle_beta                  90.00036225308584 
_cell_angle_gamma                 90.00090040858792 
loop_ 
_atom_site_label 
_atom_site_type_symbol 
_atom_site_fract_x 
_atom_site_fract_y 
_atom_site_fract_z 
_atom_site_charge 
O1          O  0.62821612  0.15590474  0.27969227    -0.82200
O2          O  0.52693529  0.10372787  0.43658105    -0.66900
O3          O  0.62978077  0.11816697  0.35261858    -1.13500
C4          C  0.50092158  0.99753603  0.28114936     1.04700
O5          O  0.47835615  0.02093742  0.42238846    -0.80100
O6          O  0.53325057  0.95631914  0.36436313    -0.67700
Ni7        Ni  0.63712978  0.19302131  0.33090124     1.34900
C8          C  0.58888595  0.95783243  0.36833725     0.83400
O9          O  0.63091107  0.15134071  0.42652442    -0.80600
O10         O  0.64877591  0.22683141  0.38428426    -0.90900
C11         C  0.49221174  0.06314826  0.44559973     0.83000
O12         O  0.55406656  0.21602746  0.32821896    -0.69100
O13         O  0.46323189  0.00559137  0.30861420    -0.88400
C14         C  0.51899038  0.21664616  0.35756568     0.83900
C15         C  0.65129611  0.20216229  0.41892610     1.05400
H16         H  0.50380175  0.10617305  0.34202478     0.37200
O17         O  0.52771371  0.07645937  0.35455731    -1.11000
O18         O  0.62123914  0.99868804  0.35302694    -0.67700
Ni19       Ni  0.59261164  0.06378373  0.31918112     1.26300
O20         O  0.53139226  0.18624495  0.38804219    -0.67900
O21         O  0.55499742  0.00949465  0.28481574    -0.80200
C22         C  0.66478607  0.11625823  0.26859724     0.83200
O23         O  0.65998935  0.06474373  0.28375385    -0.67400
Ni24       Ni  0.47438383  0.01516985  0.36471293     1.27400
Ni25       Ni  0.57677645  0.11305975  0.39365112     1.26100
H26         H  0.66792970  0.10358988  0.36066483     0.37800
O27         O  0.50415443  0.94951363  0.10230705    -0.82200
O28         O  0.32246407  0.90576230  0.24093440    -0.66900
O29         O  0.45475462  0.89402759  0.17013908    -1.13500
C30         C  0.33115786  0.76831926  0.10579800     1.04700
O31         O  0.35427164  0.81461851  0.24501621    -0.80100
O32         O  0.42838973  0.75444968  0.19649050    -0.67700
Ni33       Ni  0.50808708  0.95531095  0.15998079     1.34900
C34         C  0.46347044  0.75382691  0.16714598     0.83400
O35         O  0.42743939  0.96102374  0.23986800    -0.80600
O36         O  0.51920767  0.96492142  0.21607824    -0.90900
C37         C  0.31769081  0.85425635  0.25610771     0.83000
O38         O  0.44921196  0.01415081  0.16029367    -0.69100
O39         O  0.33366531  0.74366160  0.14044345    -0.88400
C40         C  0.39357423  0.01264509  0.15633029     0.83900
C41         C  0.48151292  0.97298370  0.24353816     1.05400
H42         H  0.31454248  0.86689271  0.16402641     0.37200
O43         O  0.35269073  0.85232013  0.17207842    -1.11000
O44         O  0.45108269  0.78423148  0.13666849    -0.67700
Ni45       Ni  0.40570203  0.85741559  0.13104716     1.26300
O46         O  0.36121844  0.97179788  0.17164873    -0.67900
O47         O  0.35156973  0.81912494  0.09818372    -0.80200
C48         C  0.49028506  0.90731167  0.07909313     0.83200
O49         O  0.45554958  0.86673912  0.08811148    -0.67400
Ni50       Ni  0.34533355  0.77748140  0.19381639     1.27400
Ni51       Ni  0.38984542  0.90671679  0.20550835     1.26100
H52         H  0.47866235  0.86431576  0.18267785     0.37800
O53         O  0.57057111  0.87222226  0.40468572    -0.82200
O54         O  0.62278187  0.77097585  0.06160553    -0.66900
O55         O  0.60831791  0.87379057  0.47761696    -1.13500
C56         C  0.72898123  0.74497199  0.40614409     1.04700
O57         O  0.70547905  0.72225757  0.04738217    -0.80100
O58         O  0.77013443  0.77726367  0.98942906    -0.67700
Ni59       Ni  0.53346239  0.88113322  0.45589848     1.34900
C60         C  0.76863958  0.83290749  0.49335971     0.83400
O61         O  0.57515627  0.87494071  0.05152138    -0.80600
O62         O  0.49965906  0.89278300  0.00927965    -0.90900
C63         C  0.66331335  0.73618596  0.07061044     0.83000
O64         O  0.51045951  0.79806752  0.45323030    -0.69100
O65         O  0.72094017  0.70728189  0.43360853    -0.88400
C66         C  0.50984213  0.76300072  0.48258301     0.83900
C67         C  0.52433002  0.89531273  0.04392030     1.05400
H68         H  0.62030622  0.74782150  0.46702762     0.37200
O69         O  0.65002663  0.77172763  0.47955928    -1.11000
O70         O  0.72780110  0.86525774  0.47802366    -0.67700
Ni71       Ni  0.66270050  0.83662960  0.44417951     1.26300
O72         O  0.54024887  0.77540921  0.51305683    -0.67900
O73         O  0.71699308  0.79903828  0.40980812    -0.80200
C74         C  0.61021801  0.90879294  0.39358909     0.83200
O75         O  0.66173068  0.90400668  0.40875170    -0.67400
Ni76       Ni  0.71130186  0.71837975  0.48970691     1.27400
Ni77       Ni  0.61343597  0.82079713  0.01865674     1.26100
H78         H  0.62289284  0.91194244  0.48565887     0.37800
O79         O  0.77695759  0.74816036  0.22729391    -0.82200
O80         O  0.82075238  0.56650147  0.36592058    -0.66900
O81         O  0.83247142  0.69878529  0.29512239    -1.13500
C82         C  0.95814674  0.57517461  0.23075662     1.04700
O83         O  0.91192042  0.59825551  0.36998649    -0.80100
O84         O  0.97205530  0.67239439  0.32145611    -0.67700
Ni85       Ni  0.77117984  0.75211420  0.28496740     1.34900
C86         C  0.97266881  0.70748341  0.29211612     0.83400
O87         O  0.76551902  0.67149443  0.36487064    -0.80600
O88         O  0.76157966  0.76325263  0.34106521    -0.90900
C89         C  0.87226411  0.56169452  0.38107979     0.83000
O90         O  0.71233707  0.69324280  0.28529352    -0.69100
O91         O  0.98281984  0.57768578  0.26539615    -0.88400
C92         C  0.71383851  0.63760365  0.28134584     0.83900
C93         C  0.75353946  0.72556502  0.36853280     1.05400
H94         H  0.85958360  0.55857062  0.28900860     0.37200
O95         O  0.87417031  0.59671458  0.29705738    -1.11000
O96         O  0.94225731  0.69510076  0.26163962    -0.67700
Ni97       Ni  0.86906610  0.64972260  0.25602690     1.26300
O98         O  0.75469334  0.60525616  0.29666052    -0.67900
O99         O  0.90733759  0.59558653  0.22315382    -0.80200
C100        C  0.81915516  0.73428750  0.20407815     0.83200
O101        O  0.85973303  0.69956164  0.21309510    -0.67400
Ni102      Ni  0.94902311  0.58933927  0.31877544     1.27400
Ni103      Ni  0.81979768  0.63388357  0.33049826     1.26100
H104        H  0.86218797  0.72269725  0.30765323     0.37800
O105        O  0.97832740  0.02094841  0.35231495    -0.82200
O106        O  0.15998678  0.06474890  0.49094560    -0.66900
O107        O  0.02770859  0.07645760  0.42014396    -1.13500
C108        C  0.15128849  0.20215943  0.35577329     1.04700
O109        O  0.12821393  0.15591042  0.49500775    -0.80100
O110        O  0.05405955  0.21602751  0.44647935    -0.67700
Ni111      Ni  0.97437725  0.01516791  0.40998997     1.34900
C112        C  0.01898269  0.21664408  0.41713265     0.83400
O113        O  0.05500155  0.00949853  0.98988874    -0.80600
O114        O  0.96323874  0.00557479  0.46608832    -0.90900
C115        C  0.16478378  0.11626312  0.00610215     0.83000
O116        O  0.03325045  0.95632479  0.41032240    -0.69100
O117        O  0.14876644  0.22683116  0.39041424    -0.88400
C118        C  0.08888859  0.95783475  0.40636299     0.83900
C119        C  0.00092888  0.99752829  0.99355382     1.05400
H120        H  0.16792414  0.10359171  0.41403619     0.37200
O121        O  0.12977494  0.11816823  0.42208193    -1.11000
O122        O  0.03138396  0.18624067  0.38665661    -0.67700
Ni123      Ni  0.07677160  0.11305648  0.38104926     1.26300
O124        O  0.12123840  0.99868907  0.42167835    -0.67900
O125        O  0.13090555  0.15133666  0.34817594    -0.80200
C126        C  0.99219923  0.06315024  0.32910133     0.83200
O127        O  0.02693548  0.10371989  0.33811749    -0.67400
Ni128      Ni  0.13712327  0.19302390  0.44379766     1.27400
Ni129      Ni  0.09260859  0.06378636  0.45552052     1.26100
H130        H  0.00379684  0.10617176  0.43267587     0.37800
O131        O  0.85426845  0.81461307  0.02969090    -0.82200
O132        O  0.95555446  0.86674624  0.18659690    -0.66900
O133        O  0.85269494  0.85232410  0.10262820    -1.13500
C134        C  0.98152202  0.97297592  0.03116528     1.04700
O135        O  0.00416556  0.94951533  0.17239868    -0.80100
O136        O  0.94922176  0.01415082  0.11441175    -0.67700
Ni137      Ni  0.84533526  0.77748307  0.08089329     1.34900
C138        C  0.89358316  0.01264815  0.11837088     0.83400
O139        O  0.85157134  0.81913904  0.17652377    -0.80600
O140        O  0.83367063  0.74366948  0.13426778    -0.90900
C141        C  0.99029314  0.90731699  0.19561440     0.83000
O142        O  0.92839183  0.75445279  0.07821949    -0.69100
O143        O  0.01921625  0.96491734  0.05862634    -0.88400
C144        C  0.96347078  0.75382809  0.10756532     0.83900
C145        C  0.83116156  0.76833187  0.16891175     1.05400
H146        H  0.97866834  0.86431240  0.09203001     0.37200
O147        O  0.95476149  0.89402636  0.10456703    -1.11000
O148        O  0.86122747  0.97180078  0.10305205    -0.67700
Ni149      Ni  0.88985219  0.90671424  0.06919628     1.26300
O150        O  0.95108218  0.78423306  0.13804264    -0.67900
O151        O  0.92744887  0.96101426  0.03483444    -0.80200
C152        C  0.81768961  0.85425281  0.01859913     0.83200
O153        O  0.82246921  0.90575989  0.03377020    -0.67400
Ni154      Ni  0.00809583  0.95530939  0.11472432     1.27400
Ni155      Ni  0.90570661  0.85742159  0.14366008     1.26100
H156        H  0.81454741  0.86689928  0.11067888     0.37800
O157        O  0.20548420  0.72226147  0.22732626    -0.82200
O158        O  0.16174285  0.90400720  0.36595873    -0.66900
O159        O  0.15003349  0.77172873  0.29515012    -1.13500
C160        C  0.02433862  0.89531889  0.23078827     1.04700
O161        O  0.07058650  0.87221728  0.37002115    -0.80100
O162        O  0.01046435  0.79807679  0.32147781    -0.67700
Ni163      Ni  0.21130964  0.71838169  0.28500134     1.34900
C164        C  0.00984593  0.76300952  0.29212553     0.83400
O165        O  0.21700283  0.79903813  0.36490211    -0.80600
O166        O  0.22095149  0.70728265  0.34109979    -0.90900
C167        C  0.11022915  0.90879112  0.38111914     0.83000
O168        O  0.27014156  0.77726581  0.28527926    -0.69100
O169        O  0.99966923  0.89279455  0.26542961    -0.88400
C170        C  0.26864495  0.83290949  0.28134854     0.83900
C171        C  0.22899196  0.74497194  0.36856538     1.05400
H172        H  0.12290419  0.91194411  0.28905020     0.37200
O173        O  0.10832809  0.87379333  0.29709220    -1.11000
O174        O  0.04025400  0.77541491  0.26165231    -0.67700
Ni175      Ni  0.11344267  0.82079903  0.25605268     1.26300
O176        O  0.22780810  0.86525908  0.29668630    -0.67900
O177        O  0.07516362  0.87494329  0.22318760    -0.80200
C178        C  0.16331587  0.73618709  0.20409923     0.83200
O179        O  0.12278387  0.77097569  0.21310480    -0.67400
Ni180      Ni  0.03347384  0.88113925  0.31881080     1.27400
Ni181      Ni  0.16270997  0.83663052  0.33053036     1.26100
H182        H  0.12031305  0.74782283  0.30768126     0.37800
O183        O  0.41190963  0.59824769  0.40472405    -0.82200
O184        O  0.35973898  0.69955442  0.06161368    -0.66900
O185        O  0.37416692  0.59670126  0.47765326    -1.13500
C186        C  0.25354812  0.72556333  0.40617777     1.04700
O187        O  0.27694613  0.74812667  0.04741933    -0.80100
O188        O  0.21233042  0.69323617  0.98939985    -0.67700
Ni189      Ni  0.44901772  0.58932729  0.45593321     1.34900
C190        C  0.21383453  0.63759967  0.49335981     0.83400
O191        O  0.40734105  0.59557488  0.05155673    -0.80600
O192        O  0.48281859  0.57767075  0.00931162    -0.90900
C193        C  0.31915273  0.73426943  0.07063286     0.83000
O194        O  0.47205129  0.67238282  0.45325276    -0.69100
O195        O  0.26159569  0.76325081  0.43364556    -0.88400
C196        C  0.47266723  0.70747205  0.48259290     0.83900
C197        C  0.45814911  0.57516119  0.04395228     1.05400
H198        H  0.36218777  0.72268427  0.46705781     0.37200
O199        O  0.33247173  0.69877256  0.47958904    -1.11000
O200        O  0.25469138  0.60524876  0.47805181    -0.67700
Ni201      Ni  0.31979386  0.63387290  0.44421296     1.26300
O202        O  0.44225941  0.69508762  0.51307026    -0.67900
O203        O  0.26551584  0.67148984  0.40984167    -0.80200
C204        C  0.37225397  0.56168629  0.39362986     0.83200
O205        O  0.32074288  0.56649148  0.40878967    -0.67400
Ni206      Ni  0.27118079  0.75210076  0.48974459     1.27400
Ni207      Ni  0.36906778  0.64971082  0.01868378     1.26100
H208        H  0.35958010  0.55855731  0.48570217     0.37800
O209        O  0.07059360  0.37221751  0.15467465    -0.82200
O210        O  0.12277391  0.27098099  0.31158972    -0.66900
O211        O  0.10832214  0.37380131  0.22760500    -1.13500
C212        C  0.22899634  0.24498671  0.15613454     1.04700
O213        O  0.20547839  0.22227151  0.29737095    -0.80100
O214        O  0.27013993  0.27727603  0.23942153    -0.67700
Ni215      Ni  0.03347022  0.38114243  0.20588108     1.34900
C216        C  0.26864137  0.33291864  0.24335786     0.83400
O217        O  0.07514285  0.37494439  0.30150803    -0.80600
O218        O  0.99965583  0.39279851  0.25925993    -0.90900
C219        C  0.16330785  0.23619522  0.32059634     0.83000
O220        O  0.01046063  0.29807954  0.20321170    -0.69100
O221        O  0.22095246  0.20729672  0.18359877    -0.88400
C222        C  0.00984391  0.26301034  0.23256273     0.83900
C223        C  0.02431830  0.39531976  0.29390401     1.05400
H224        H  0.12031533  0.24783447  0.21701228     0.37200
O225        O  0.15003330  0.27174007  0.22954665    -1.11000
O226        O  0.22780601  0.36527029  0.22801946    -0.67700
Ni227      Ni  0.16271225  0.33664289  0.19416918     1.26300
O228        O  0.04025043  0.27541569  0.26303687    -0.67900
O229        O  0.21701145  0.29905380  0.15979939    -0.80200
C230        C  0.11023237  0.40879602  0.14357805     0.83200
O231        O  0.16174525  0.40401958  0.15874141    -0.67400
Ni232      Ni  0.21130785  0.21839274  0.23969662     1.27400
Ni233      Ni  0.11343360  0.32080572  0.26864324     1.26100
H234        H  0.12289467  0.41195282  0.23564926     0.37800
O235        O  0.27692118  0.24807284  0.47728017    -0.82200
O236        O  0.32073480  0.06649294  0.11592194    -0.66900
O237        O  0.33246861  0.19876860  0.04511875    -1.13500
C238        C  0.45816404  0.07516093  0.48076663     1.04700
O239        O  0.41189729  0.09825778  0.11999053    -0.80100
O240        O  0.47205254  0.17238494  0.07146773    -0.67700
Ni241      Ni  0.27117176  0.25208635  0.03495518     1.34900
C242        C  0.47266964  0.20747418  0.04212798     0.83400
O243        O  0.26550374  0.17149700  0.11485839    -0.80600
O244        O  0.26160445  0.26326012  0.09105386    -0.90900
C245        C  0.37224586  0.06169192  0.13108370     0.83000
O246        O  0.21231623  0.19322600  0.03532697    -0.69100
O247        O  0.48282730  0.07766805  0.01540999    -0.88400
C248        C  0.21383045  0.13759371  0.03134664     0.83900
C249        C  0.25354928  0.22557462  0.11852232     1.05400
H250        H  0.35958469  0.05855551  0.03900847     0.37200
O251        O  0.37416887  0.09669975  0.04705909    -1.11000
O252        O  0.44226462  0.19508910  0.01164955    -0.67700
Ni253      Ni  0.36907623  0.14971065  0.00602875     1.26300
O254        O  0.25469220  0.10524256  0.04664851    -0.67900
O255        O  0.40735859  0.09557809  0.47315786    -0.80200
C256        C  0.31914853  0.23424822  0.45407489     0.83200
O257        O  0.35975529  0.19956140  0.46310238    -0.67400
Ni258      Ni  0.44901670  0.08932972  0.06878594     1.27400
Ni259      Ni  0.31978771  0.13387192  0.08049447     1.26100
H260        H  0.36218028  0.22268446  0.05765191     0.37800
O261        O  0.47832625  0.52094348  0.10233288    -0.82200
O262        O  0.65998328  0.56474111  0.24096497    -0.66900
O263        O  0.52770376  0.57645406  0.17016248    -1.13500
C264        C  0.65129380  0.70215053  0.10578872     1.04700
O265        O  0.62820583  0.65589936  0.24502165    -0.80100
O266        O  0.55407110  0.71603172  0.19649475    -0.67700
Ni267      Ni  0.47437359  0.51516226  0.16000716     1.34900
C268        C  0.51899303  0.71664737  0.16714911     0.83400
O269        O  0.55499559  0.50949031  0.23990650    -0.80600
O270        O  0.46323331  0.50556579  0.21610484    -0.90900
C271        C  0.66478039  0.61625819  0.25611722     0.83000
O272        O  0.53324713  0.45631927  0.16033928    -0.69100
O273        O  0.64878084  0.72682139  0.14043055    -0.88400
C274        C  0.58888442  0.45783313  0.15637572     0.83900
C275        C  0.50092315  0.49751708  0.24357027     1.05400
H276        H  0.66792013  0.60358111  0.16405211     0.37200
O277        O  0.62977259  0.61816050  0.17209881    -1.11000
O278        O  0.53138797  0.68623918  0.13667466    -0.67700
Ni279      Ni  0.57676726  0.61305226  0.13106696     1.26300
O280        O  0.62123380  0.49868520  0.17169399    -0.67900
O281        O  0.63090208  0.65133063  0.09819197    -0.80200
C282        C  0.49219197  0.56314850  0.07912068     0.83200
O283        O  0.52692507  0.60372097  0.08813731    -0.67400
Ni284      Ni  0.63712962  0.69301535  0.19381421     1.27400
Ni285      Ni  0.59260426  0.56377975  0.20553876     1.26100
H286        H  0.50379211  0.60616938  0.18269412     0.37800
O287        O  0.35426236  0.31461973  0.27969615    -0.82200
O288        O  0.45553922  0.36672753  0.43660479    -0.66900
O289        O  0.35267739  0.35231359  0.35263673    -1.13500
C290        C  0.48151499  0.47296160  0.28118074     1.04700
O291        O  0.50411443  0.44952107  0.42241378    -0.80100
O292        O  0.44920784  0.51414944  0.36440095    -0.67700
Ni293      Ni  0.34532536  0.27747697  0.33089451     1.34900
C294        C  0.39357321  0.51264159  0.36837927     0.83400
O295        O  0.35155593  0.31911116  0.42653032    -0.80600
O296        O  0.33365620  0.24365183  0.38426542    -0.90900
C297        C  0.49026199  0.40731068  0.44562578     0.83000
O298        O  0.42838444  0.25444835  0.32822191    -0.69100
O299        O  0.51921011  0.46488774  0.30863987    -0.88400
C300        C  0.46346302  0.25382167  0.35756829     0.83900
C301        C  0.33114678  0.26830510  0.41891240     1.05400
H302        H  0.47864878  0.36430624  0.34204030     0.37200
O303        O  0.45474146  0.39401753  0.35457943    -1.11000
O304        O  0.36121278  0.47179075  0.35307008    -0.67700
Ni305      Ni  0.38983597  0.40671061  0.31920926     1.26300
O306        O  0.45106991  0.28422083  0.38804734    -0.67900
O307        O  0.42743797  0.46101602  0.28485269    -0.80200
C308        C  0.31768324  0.35426009  0.26860513     0.83200
O309        O  0.32245617  0.40576388  0.28378179    -0.67400
Ni310      Ni  0.50807370  0.45529938  0.36473858     1.27400
Ni311      Ni  0.40568880  0.35740503  0.39366935     1.26100
H312        H  0.31452901  0.36688545  0.36068795     0.37800
O313        O  0.91190289  0.09826482  0.15470820    -0.82200
O314        O  0.85974894  0.19957267  0.31159531    -0.66900
O315        O  0.87416860  0.09671021  0.22763870    -1.13500
C316        C  0.75354160  0.22557632  0.15617577     1.04700
O317        O  0.77691626  0.24808592  0.29741704    -0.80100
O318        O  0.71231426  0.19322540  0.23937443    -0.67700
Ni319      Ni  0.94901735  0.08933735  0.20591443     1.34900
C320        C  0.71383158  0.13759257  0.24335237     0.83400
O321        O  0.90735232  0.09559015  0.30154094    -0.80600
O322        O  0.98282273  0.07767544  0.25929159    -0.90900
C323        C  0.81914299  0.23426039  0.32062249     0.83000
O324        O  0.97205470  0.17239148  0.20323341    -0.69100
O325        O  0.76159281  0.26326212  0.18364455    -0.88400
C326        C  0.97266812  0.20748307  0.23257205     0.83900
C327        C  0.95815624  0.07516869  0.29393358     1.05400
H328        H  0.86217550  0.22269531  0.21704655     0.37200
O329        O  0.83246459  0.19877816  0.22957858    -1.11000
O330        O  0.75469385  0.10524479  0.22804782    -0.67700
Ni331      Ni  0.81978770  0.13387928  0.19420247     1.26300
O332        O  0.94225981  0.19510115  0.26304932    -0.67900
O333        O  0.76550179  0.17150005  0.15983834    -0.80200
C334        C  0.87225248  0.06169822  0.14361428     0.83200
O335        O  0.82074043  0.06649970  0.15877440    -0.67400
Ni336      Ni  0.77116389  0.25209217  0.23974242     1.27400
Ni337      Ni  0.86907210  0.14972166  0.26866896     1.26100
H338        H  0.85958430  0.05856614  0.23568916     0.37800
O339        O  0.70548716  0.22228514  0.47732791    -0.82200
O340        O  0.66173670  0.40402069  0.11595967    -0.66900
O341        O  0.65003111  0.27174145  0.04515284    -1.13500
C342        C  0.52431392  0.39531583  0.48079746     1.04700
O343        O  0.57058344  0.37222039  0.12002821    -0.80100
O344        O  0.51045974  0.29807258  0.07148892    -0.67700
Ni345      Ni  0.71130797  0.21839796  0.03500268     1.34900
C346        C  0.50984372  0.26300321  0.04213756     0.83400
O347        O  0.71700911  0.29905593  0.11489851    -0.80600
O348        O  0.72094155  0.20729678  0.09110056    -0.90900
C349        C  0.61022489  0.40879675  0.13112497     0.83000
O350        O  0.77014049  0.27728217  0.03528857    -0.69100
O351        O  0.49964993  0.39279029  0.01544050    -0.88400
C352        C  0.76863827  0.33292351  0.03134513     0.83900
C353        C  0.72898862  0.24498763  0.11856420     1.05400
H354        H  0.62288567  0.41195283  0.03905244     0.37200
O355        O  0.60831516  0.37380035  0.04709618    -1.11000
O356        O  0.54024839  0.27541075  0.01166309    -0.67700
Ni357      Ni  0.61342980  0.32080472  0.00605729     1.26300
O358        O  0.72779928  0.36527498  0.04667950    -0.63100
O359        O  0.57513867  0.37494210  0.47319324    -0.80200
C360        C  0.66331301  0.23620087  0.45410290     0.83200
O361        O  0.62277338  0.27097968  0.46311058    -0.67400
Ni362      Ni  0.53346297  0.38113780  0.06881973     1.27400
Ni363      Ni  0.66270735  0.33664447  0.08053065     1.26100
H364        H  0.62031450  0.24783432  0.05768699     0.37800
O365        O  0.12820775  0.65590457  0.02968764    -0.82200
O366        O  0.02693441  0.60371682  0.18657516    -0.66900
O367        O  0.12977216  0.61816289  0.10261040    -1.13500
C368        C  0.00093235  0.49751006  0.03113540     1.04700
O369        O  0.97829792  0.52096361  0.17237131    -0.80100
O370        O  0.03324593  0.45632965  0.11438595    -0.67700
Ni371      Ni  0.13712951  0.69301811  0.08089638     1.34900
C372        C  0.08888610  0.45783757  0.11833522     0.83400
O373        O  0.13090624  0.65133059  0.17651732    -0.80600
O374        O  0.14878046  0.72682299  0.13428009    -0.90900
C375        C  0.99218453  0.56315707  0.19558740     0.83000
O376        O  0.05407066  0.71603287  0.07821700    -0.69100
O377        O  0.96324220  0.50555335  0.05860054    -0.88400
C378        C  0.01899305  0.71664795  0.10756272     0.83900
C379        C  0.15129580  0.70215140  0.16892120     1.05400
H380        H  0.00379325  0.60617202  0.09201445     0.37200
O381        O  0.02770344  0.57645570  0.10454578    -1.11000
O382        O  0.12123415  0.49868628  0.10301187    -0.67700
Ni383      Ni  0.09260479  0.56378252  0.06916958     1.26300
O384        O  0.03138794  0.68623858  0.13803680    -0.67900
O385        O  0.05500207  0.50949269  0.03479904    -0.80200
C386        C  0.16478003  0.61626088  0.01859239     0.83200
O387        O  0.15998333  0.56474498  0.03374554    -0.67400
Ni388      Ni  0.97436846  0.51516707  0.11469794     1.27400
Ni389      Ni  0.07676965  0.61305217  0.14364268     1.26100
H390        H  0.16792019  0.60358365  0.11065657     0.37800
O391        O  0.00411423  0.44952417  0.35228903    -0.82200
O392        O  0.82245862  0.40576641  0.99092097    -0.66900
O393        O  0.95474400  0.39401661  0.42012286    -1.13500
C394        C  0.83114144  0.26831607  0.35578551     1.04700
O395        O  0.85425587  0.31461925  0.49500416    -0.80100
O396        O  0.92837813  0.25444993  0.44647650    -0.67700
Ni397      Ni  0.00807866  0.45529694  0.40996514     1.34900
C398        C  0.96345604  0.25382095  0.41712996     0.83400
O399        O  0.92744715  0.46101064  0.98985212    -0.80600
O400        O  0.01921929  0.46487990  0.46606471    -0.90900
C401        C  0.81768008  0.35426206  0.00609594     0.83000
O402        O  0.94921690  0.51415168  0.41030732    -0.69100
O403        O  0.83364991  0.24366111  0.39043169    -0.88400
C404        C  0.89358222  0.51264705  0.40632854     0.83900
C405        C  0.98152490  0.47295392  0.99352431     1.05400
H406        H  0.81452923  0.36689498  0.41401284     0.37200
O407        O  0.85267684  0.35231964  0.42206377    -1.11000
O408        O  0.95106395  0.28422091  0.38665130    -0.67700
Ni409      Ni  0.90568921  0.35740930  0.38103135     1.26300
O410        O  0.86122010  0.47179619  0.42163552    -0.67900
O411        O  0.85155320  0.31912140  0.34816900    -0.80200
C412        C  0.99026477  0.40731304  0.32907616     0.83200
O413        O  0.95554250  0.36672906  0.33809658    -0.67400
Ni414      Ni  0.84531965  0.27748209  0.44380363     1.27400
Ni415      Ni  0.88983942  0.40671121  0.45549353     1.26100
H416        H  0.97865034  0.36430323  0.43266093     0.37800
O417        O  0.62821610  0.15590480  0.77969225    -0.82200
O418        O  0.52693532  0.10372791  0.93658106    -0.66900
O419        O  0.62978074  0.11816696  0.85261857    -1.13500
C420        C  0.50092155  0.99753606  0.78114934     1.04700
O421        O  0.47835616  0.02093750  0.92238841    -0.80100
O422        O  0.53325054  0.95631911  0.86436312    -0.67700
Ni423      Ni  0.63712979  0.19302129  0.83090125     1.34900
C424        C  0.58888591  0.95783244  0.86833724     0.83400
O425        O  0.63091124  0.15134049  0.92652443    -0.80600
O426        O  0.64877579  0.22683128  0.88428430    -0.90900
C427        C  0.49221181  0.06314826  0.94559974     0.83000
O428        O  0.55406669  0.21602756  0.82821897    -0.69100
O429        O  0.46323190  0.00559127  0.80861420    -0.88400
C430        C  0.51899049  0.21664625  0.85756567     0.83900
C431        C  0.65129606  0.20216217  0.91892613     1.05400
H432        H  0.50380162  0.10617335  0.84202477     0.37200
O433        O  0.52771371  0.07645942  0.85455732    -1.11000
O434        O  0.62123905  0.99868809  0.85302695    -0.67700
Ni435      Ni  0.59261157  0.06378382  0.81918111     1.26300
O436        O  0.53139234  0.18624498  0.88804219    -0.67900
O437        O  0.55499736  0.00949479  0.78481567    -0.80200
C438        C  0.66478600  0.11625829  0.76859723     0.83200
O439        O  0.65998930  0.06474379  0.78375387    -0.67400
Ni440      Ni  0.47438387  0.01516990  0.86471291     1.27400
Ni441      Ni  0.57677648  0.11305972  0.89365112     1.26100
H442        H  0.66792967  0.10358986  0.86066477     0.37800
O443        O  0.50415454  0.94951363  0.60230704    -0.82200
O444        O  0.32246393  0.90576213  0.74093428    -0.66900
O445        O  0.45475458  0.89402756  0.67013907    -1.13500
C446        C  0.33115788  0.76831926  0.60579793     1.04700
O447        O  0.35427147  0.81461832  0.74501613    -0.80100
O448        O  0.42838956  0.75444944  0.69649047    -0.67700
Ni449      Ni  0.50808704  0.95531094  0.65998077     1.34900
C450        C  0.46347038  0.75382684  0.66714600     0.83400
O451        O  0.42743929  0.96102367  0.73986802    -0.80600
O452        O  0.51920754  0.96492150  0.71607821    -0.90900
C453        C  0.31769071  0.85425623  0.75610763     0.83000
O454        O  0.44921197  0.01415079  0.66029367    -0.69100
O455        O  0.33366522  0.74366157  0.64044337    -0.88400
C456        C  0.39357422  0.01264509  0.65633028     0.83900
C457        C  0.48151281  0.97298372  0.74353813     1.05400
H458        H  0.31454268  0.86689270  0.66402634     0.37200
O459        O  0.35269059  0.85232016  0.67207831    -1.11000
O460        O  0.45108268  0.78423145  0.63666853    -0.67700
Ni461      Ni  0.40570205  0.85741557  0.63104714     1.26300
O462        O  0.36121840  0.97179791  0.67164874    -0.67900
O463        O  0.35156980  0.81912493  0.59818367    -0.80200
C464        C  0.49028521  0.90731165  0.57909315     0.83200
O465        O  0.45554977  0.86673907  0.58811152    -0.67400
Ni466      Ni  0.34533341  0.77748132  0.69381628     1.27400
Ni467      Ni  0.38984534  0.90671676  0.70550831     1.26100
H468        H  0.47866221  0.86431579  0.68267775     0.37800
O469        O  0.57057122  0.87222219  0.90468571    -0.82200
O470        O  0.62278182  0.77097587  0.56160557    -0.66900
O471        O  0.60831785  0.87379071  0.97761699    -1.13500
C472        C  0.72898111  0.74497197  0.90614408     1.04700
O473        O  0.70547895  0.72225756  0.54738215    -0.80100
O474        O  0.77013442  0.77726358  0.48942908    -0.67700
Ni475      Ni  0.53346235  0.88113314  0.95589845     1.34900
C476        C  0.76863961  0.83290757  0.99335972     0.83400
O477        O  0.57515639  0.87494075  0.55152132    -0.80600
O478        O  0.49965913  0.89278309  0.50927966    -0.90900
C479        C  0.66331327  0.73618596  0.57061044     0.83000
O480        O  0.51045955  0.79806746  0.95323024    -0.69100
O481        O  0.72094010  0.70728187  0.93360851    -0.88400
C482        C  0.50984208  0.76300077  0.98258300     0.83900
C483        C  0.52433014  0.89531277  0.54392029     1.05400
H484        H  0.62030623  0.74782166  0.96702759     0.37200
O485        O  0.65002664  0.77172776  0.97955929    -1.11000
O486        O  0.72780117  0.86525787  0.97802364    -0.67700
Ni487      Ni  0.66270052  0.83662974  0.94417953     1.26300
O488        O  0.54024874  0.77540939  0.01305685    -0.67900
O489        O  0.71699300  0.79903827  0.90980812    -0.80200
C490        C  0.61021804  0.90879296  0.89358909     0.83200
O491        O  0.66173069  0.90400682  0.90875172    -0.67400
Ni492      Ni  0.71130188  0.71837980  0.98970691     1.27400
Ni493      Ni  0.61343602  0.82079706  0.51865672     1.26100
H494        H  0.62289265  0.91194262  0.98565890     0.37800
O495        O  0.77695761  0.74816029  0.72729390    -0.82200
O496        O  0.82075242  0.56650151  0.86592060    -0.66900
O497        O  0.83247152  0.69878535  0.79512240    -1.13500
C498        C  0.95814671  0.57517462  0.73075662     1.04700
O499        O  0.91192044  0.59825558  0.86998651    -0.80100
O500        O  0.97205523  0.67239448  0.82145613    -0.67700
Ni501      Ni  0.77117987  0.75211418  0.78496740     1.34900
C502        C  0.97266898  0.70748344  0.79211610     0.83400
O503        O  0.76551893  0.67149445  0.86487058    -0.80600
O504        O  0.76157976  0.76325269  0.84106523    -0.90900
C505        C  0.87226412  0.56169457  0.88107982     0.83000
O506        O  0.71233711  0.69324268  0.78529357    -0.69100
O507        O  0.98281977  0.57768570  0.76539617    -0.88400
C508        C  0.71383858  0.63760356  0.78134581     0.83900
C509        C  0.75353941  0.72556504  0.86853277     1.05400
H510        H  0.85958354  0.55857059  0.78900852     0.37200
O511        O  0.87417033  0.59671465  0.79705737    -1.11000
O512        O  0.94225754  0.69510082  0.76163959    -0.67700
Ni513      Ni  0.86906622  0.64972277  0.75602689     1.26300
O514        O  0.75469343  0.60525606  0.79666047    -0.67900
O515        O  0.90733767  0.59558678  0.72315378    -0.80200
C516        C  0.81915525  0.73428761  0.70407815     0.83200
O517        O  0.85973326  0.69956190  0.71309514    -0.67400
Ni518      Ni  0.94902308  0.58933933  0.81877545     1.27400
Ni519      Ni  0.81979768  0.63388357  0.83049824     1.26100
H520        H  0.86218806  0.72269732  0.80765327     0.37800
O521        O  0.97832736  0.02094866  0.85231500    -0.82200
O522        O  0.15998685  0.06474901  0.99094554    -0.66900
O523        O  0.02770861  0.07645769  0.92014400    -1.13500
C524        C  0.15128850  0.20215937  0.85577328     1.04700
O525        O  0.12821409  0.15591057  0.99500776    -0.80100
O526        O  0.05405972  0.21602759  0.94647937    -0.67700
Ni527      Ni  0.97437727  0.01516803  0.90999000     1.34900
C528        C  0.01898289  0.21664412  0.91713266     0.83400
O529        O  0.05500161  0.00949826  0.48988870    -0.80600
O530        O  0.96323872  0.00557471  0.96608830    -0.90900
C531        C  0.16478364  0.11626304  0.50610218     0.83000
O532        O  0.03325045  0.95632483  0.91032239    -0.69100
O533        O  0.14876637  0.22683115  0.89041420    -0.88400
C534        C  0.08888856  0.95783482  0.90636298     0.83900
C535        C  0.00092891  0.99752817  0.49355380     1.05400
H536        H  0.16792394  0.10359181  0.91403627     0.37200
O537        O  0.12977505  0.11816826  0.92208193    -1.11000
O538        O  0.03138414  0.18624068  0.88665663    -0.67700
Ni539      Ni  0.07677165  0.11305653  0.88104930     1.26300
O540        O  0.12123833  0.99868921  0.92167832    -0.67900
O541        O  0.13090567  0.15133656  0.84817596    -0.80200
C542        C  0.99219923  0.06315044  0.82910136     0.83200
O543        O  0.02693560  0.10371999  0.83811747    -0.67400
Ni544      Ni  0.13712336  0.19302396  0.94379765     1.27400
Ni545      Ni  0.09260855  0.06378653  0.95552054     1.26100
H546        H  0.00379668  0.10617208  0.93267607     0.37800
O547        O  0.85426845  0.81461314  0.52969088    -0.82200
O548        O  0.95555439  0.86674631  0.68659688    -0.66900
O549        O  0.85269485  0.85232416  0.60262820    -1.13500
C550        C  0.98152199  0.97297582  0.53116526     1.04700
O551        O  0.00416546  0.94951545  0.67239870    -0.80100
O552        O  0.94922180  0.01415088  0.61441172    -0.67700
Ni553      Ni  0.84533529  0.77748316  0.58089328     1.34900
C554        C  0.89358322  0.01264824  0.61837088     0.83400
O555        O  0.85157121  0.81913924  0.67652376    -0.80600
O556        O  0.83367076  0.74366961  0.63426779    -0.90900
C557        C  0.99029303  0.90731707  0.69561441     0.83000
O558        O  0.92839186  0.75445296  0.57821949    -0.69100
O559        O  0.01921622  0.96491719  0.55862632    -0.88400
C560        C  0.96347078  0.75382818  0.60756534     0.83900
C561        C  0.83116156  0.76833201  0.66891175     1.05400
H562        H  0.97866850  0.86431233  0.59203000     0.37200
O563        O  0.95476147  0.89402644  0.60456705    -1.11000
O564        O  0.86122750  0.97180084  0.60305207    -0.67700
Ni565      Ni  0.88985216  0.90671427  0.56919628     1.26300
O566        O  0.95108221  0.78423318  0.63804265    -0.67900
O567        O  0.92744881  0.96101432  0.53483445    -0.80200
C568        C  0.81768958  0.85425284  0.51859911     0.83200
O569        O  0.82246910  0.90575991  0.53377021    -0.67400
Ni570      Ni  0.00809583  0.95530940  0.61472432     1.27400
Ni571      Ni  0.90570657  0.85742168  0.64366006     1.26100
H572        H  0.81454739  0.86689922  0.61067884     0.37800
O573        O  0.20548421  0.72226148  0.72732624    -0.82200
O574        O  0.16174286  0.90400723  0.86595873    -0.66900
O575        O  0.15003345  0.77172875  0.79515011    -1.13500
C576        C  0.02433849  0.89531893  0.73078829     1.04700
O577        O  0.07058656  0.87221722  0.87002116    -0.80100
O578        O  0.01046460  0.79807667  0.82147785    -0.67700
Ni579      Ni  0.21130957  0.71838172  0.78500134     1.34900
C580        C  0.00984612  0.76300947  0.79212554     0.83400
O581        O  0.21700293  0.79903820  0.86490209    -0.80600
O582        O  0.22095140  0.70728271  0.84109980    -0.90900
C583        C  0.11022915  0.90879113  0.88111913     0.83000
O584        O  0.27014152  0.77726578  0.78527929    -0.69100
O585        O  0.99966911  0.89279456  0.76542964    -0.88400
C586        C  0.26864490  0.83290944  0.78134855     0.83900
C587        C  0.22899201  0.74497198  0.86856537     1.05400
H588        H  0.12290408  0.91194436  0.78905016     0.37200
O589        O  0.10832797  0.87379325  0.79709222    -1.11000
O590        O  0.04025400  0.77541499  0.76165227    -0.67700
Ni591      Ni  0.11344262  0.82079902  0.75605268     1.26300
O592        O  0.22780805  0.86525905  0.79668626    -0.67900
O593        O  0.07516351  0.87494329  0.72318760    -0.80200
C594        C  0.16331585  0.73618701  0.70409923     0.83200
O595        O  0.12278378  0.77097555  0.71310483    -0.67400
Ni596      Ni  0.03347379  0.88113919  0.81881083     1.27400
Ni597      Ni  0.16270994  0.83663057  0.83053036     1.26100
H598        H  0.12031291  0.74782272  0.80768133     0.37800
O599        O  0.41190978  0.59824779  0.90472399    -0.82200
O600        O  0.35973903  0.69955437  0.56161366    -0.66900
O601        O  0.37416696  0.59670128  0.97765329    -1.13500
C602        C  0.25354818  0.72556328  0.90617775     1.04700
O603        O  0.27694616  0.74812661  0.54741932    -0.80100
O604        O  0.21233040  0.69323622  0.48939987    -0.67700
Ni605      Ni  0.44901777  0.58932739  0.95593319     1.34900
C606        C  0.21383456  0.63759960  0.99335978     0.83400
O607        O  0.40734095  0.59557470  0.55155674    -0.80600
O608        O  0.48281856  0.57767082  0.50931164    -0.90900
C609        C  0.31915280  0.73426944  0.57063281     0.83000
O610        O  0.47205117  0.67238297  0.95325277    -0.69100
O611        O  0.26159564  0.76325073  0.93364557    -0.88400
C612        C  0.47266721  0.70747217  0.98259292     0.83900
C613        C  0.45814908  0.57516115  0.54395229     1.05400
H614        H  0.36218781  0.72268432  0.96705780     0.37200
O615        O  0.33247179  0.69877262  0.97958904    -1.11000
O616        O  0.25469147  0.60524875  0.97805183    -0.67700
Ni617      Ni  0.31979398  0.63387294  0.94421298     1.26300
O618        O  0.44225944  0.69508776  0.01307030    -0.67900
O619        O  0.26551600  0.67148981  0.90984163    -0.80200
C620        C  0.37225408  0.56168640  0.89362981     0.83200
O621        O  0.32074306  0.56649155  0.90878970    -0.67400
Ni622      Ni  0.27118079  0.75210071  0.98974460     1.27400
Ni623      Ni  0.36906771  0.64971071  0.51868378     1.26100
H624        H  0.35958015  0.55855756  0.98570220     0.37800
O625        O  0.07059346  0.37221758  0.65467465    -0.82200
O626        O  0.12277378  0.27098089  0.81158968    -0.66900
O627        O  0.10832208  0.37380131  0.72760497    -1.13500
C628        C  0.22899622  0.24498661  0.65613453     1.04700
O629        O  0.20547839  0.22227160  0.79737096    -0.80100
O630        O  0.27013988  0.27727608  0.73942149    -0.67700
Ni631      Ni  0.03347017  0.38114239  0.70588109     1.34900
C632        C  0.26864133  0.33291867  0.74335785     0.83400
O633        O  0.07514294  0.37494456  0.80150804    -0.80600
O634        O  0.99965588  0.39279857  0.75925995    -0.90900
C635        C  0.16330777  0.23619517  0.82059631     0.83000
O636        O  0.01046084  0.29807940  0.70321170    -0.69100
O637        O  0.22095239  0.20729665  0.68359877    -0.88400
C638        C  0.00984396  0.26301028  0.73256278     0.83900
C639        C  0.02431841  0.39531993  0.79390402     1.05400
H640        H  0.12031529  0.24783457  0.71701225     0.37200
O641        O  0.15003330  0.27174015  0.72954667    -1.11000
O642        O  0.22780597  0.36527036  0.72801947    -0.67700
Ni643      Ni  0.16271224  0.33664295  0.69416918     1.26300
O644        O  0.04025041  0.27541576  0.76303694    -0.67900
O645        O  0.21701139  0.29905373  0.65979939    -0.80200
C646        C  0.11023224  0.40879608  0.64357807     0.83200
O647        O  0.16174516  0.40401957  0.65874137    -0.67400
Ni648      Ni  0.21130784  0.21839273  0.73969663     1.27400
Ni649      Ni  0.11343360  0.32080578  0.76864326     1.26100
H650        H  0.12289461  0.41195316  0.73564925     0.37800
O651        O  0.27692105  0.24807302  0.97728017    -0.82200
O652        O  0.32073482  0.06649285  0.61592188    -0.66900
O653        O  0.33246875  0.19876862  0.54511880    -1.13500
C654        C  0.45816412  0.07516083  0.98076665     1.04700
O655        O  0.41189730  0.09825775  0.61999053    -0.80100
O656        O  0.47205276  0.17238492  0.57146774    -0.67700
Ni657      Ni  0.27117180  0.25208623  0.53495517     1.34900
C658        C  0.47266975  0.20747421  0.54212801     0.83400
O659        O  0.26550369  0.17149686  0.61485841    -0.80600
O660        O  0.26160439  0.26325995  0.59105385    -0.90900
C661        C  0.37224588  0.06169185  0.63108366     0.83000
O662        O  0.21231614  0.19322599  0.53532690    -0.69100
O663        O  0.48282726  0.07766822  0.51540996    -0.88400
C664        C  0.21383034  0.13759370  0.53134665     0.83900
C665        C  0.25354917  0.22557446  0.61852231     1.05400
H666        H  0.35958475  0.05855556  0.53900850     0.37200
O667        O  0.37416891  0.09669981  0.54705911    -1.11000
O668        O  0.44226465  0.19508911  0.51164960    -0.67700
Ni669      Ni  0.36907624  0.14971060  0.50602875     1.26300
O670        O  0.25469217  0.10524260  0.54664851    -0.67900
O671        O  0.40735865  0.09557807  0.97315787    -0.80200
C672        C  0.31914842  0.23424839  0.95407492     0.83200
O673        O  0.35975519  0.19956156  0.96310242    -0.67400
Ni674      Ni  0.44901672  0.08932977  0.56878593     1.27400
Ni675      Ni  0.31978771  0.13387188  0.58049446     1.26100
H676        H  0.36218014  0.22268420  0.55765180     0.37800
O677        O  0.47832658  0.52094336  0.60233283    -0.82200
O678        O  0.65998320  0.56474103  0.74096499    -0.66900
O679        O  0.52770369  0.57645412  0.67016250    -1.13500
C680        C  0.65129382  0.70215052  0.60578872     1.04700
O681        O  0.62820595  0.65589936  0.74502164    -0.80100
O682        O  0.55407119  0.71603176  0.69649471    -0.67700
Ni683      Ni  0.47437370  0.51516223  0.66000711     1.34900
C684        C  0.51899302  0.71664734  0.66714912     0.83400
O685        O  0.55499553  0.50949030  0.73990652    -0.80600
O686        O  0.46323328  0.50556591  0.71610482    -0.90900
C687        C  0.66478043  0.61625814  0.75611720     0.83000
O688        O  0.53324718  0.45631916  0.66033932    -0.69100
O689        O  0.64878105  0.72682135  0.64043055    -0.88400
C690        C  0.58888448  0.45783301  0.65637576     0.83900
C691        C  0.50092306  0.49751713  0.74357027     1.05400
H692        H  0.66791999  0.60358117  0.66405210     0.37200
O693        O  0.62977259  0.61816052  0.67209881    -1.11000
O694        O  0.53138785  0.68623916  0.63667467    -0.67700
Ni695      Ni  0.57676722  0.61305230  0.63106696     1.26300
O696        O  0.62123381  0.49868513  0.67169402    -0.67900
O697        O  0.63090204  0.65133063  0.59819198    -0.80200
C698        C  0.49219203  0.56314853  0.57912067     0.83200
O699        O  0.52692498  0.60372110  0.58813733    -0.67400
Ni700      Ni  0.63712975  0.69301536  0.69381420     1.27400
Ni701      Ni  0.59260421  0.56377972  0.70553877     1.26100
H702        H  0.50379216  0.60616922  0.68269408     0.37800
O703        O  0.35426229  0.31461960  0.77969613    -0.82200
O704        O  0.45553926  0.36672756  0.93660474    -0.66900
O705        O  0.35267732  0.35231345  0.85263674    -1.13500
C706        C  0.48151485  0.47296161  0.78118073     1.04700
O707        O  0.50411438  0.44952113  0.92241375    -0.80100
O708        O  0.44920779  0.51414938  0.86440094    -0.67700
Ni709      Ni  0.34532533  0.27747684  0.83089449     1.34900
C710        C  0.39357318  0.51264159  0.86837924     0.83400
O711        O  0.35155607  0.31911115  0.92653032    -0.80600
O712        O  0.33365610  0.24365180  0.88426545    -0.90900
C713        C  0.49026203  0.40731070  0.94562574     0.83000
O714        O  0.42838446  0.25444821  0.82822188    -0.69100
O715        O  0.51920997  0.46488784  0.80863988    -0.88400
C716        C  0.46346312  0.25382170  0.85756822     0.83900
C717        C  0.33114672  0.26830516  0.91891241     1.05400
H718        H  0.47864869  0.36430626  0.84204024     0.37200
O719        O  0.45474140  0.39401752  0.85457939    -1.11000
O720        O  0.36121269  0.47179073  0.85307011    -0.67700
Ni721      Ni  0.38983588  0.40671053  0.81920927     1.26300
O722        O  0.45107002  0.28422091  0.88804726    -0.67900
O723        O  0.42743786  0.46101588  0.78485264    -0.80200
C724        C  0.31768320  0.35426002  0.76860512     0.83200
O725        O  0.32245610  0.40576379  0.78378183    -0.67400
Ni726      Ni  0.50807361  0.45529937  0.86473856     1.27400
Ni727      Ni  0.40568884  0.35740498  0.89366933     1.26100
H728        H  0.31452902  0.36688518  0.86068798     0.37800
O729        O  0.91190291  0.09826501  0.65470819    -0.82200
O730        O  0.85974895  0.19957254  0.81159534    -0.66900
O731        O  0.87416859  0.09671023  0.72763869    -1.13500
C732        C  0.75354158  0.22557636  0.65617577     1.04700
O733        O  0.77691630  0.24808583  0.79741707    -0.80100
O734        O  0.71231428  0.19322542  0.73937443    -0.67700
Ni735      Ni  0.94901734  0.08933746  0.70591441     1.34900
C736        C  0.71383154  0.13759260  0.74335236     0.83400
O737        O  0.90735222  0.09559008  0.80154090    -0.80600
O738        O  0.98282271  0.07767545  0.75929159    -0.90900
C739        C  0.81914304  0.23426032  0.82062250     0.83000
O740        O  0.97205459  0.17239156  0.70323344    -0.69100
O741        O  0.76159278  0.26326218  0.68364455    -0.88400
C742        C  0.97266814  0.20748307  0.73257212     0.83900
C743        C  0.95815624  0.07516877  0.79393358     1.05400
H744        H  0.86217559  0.22269542  0.71704650     0.37200
O745        O  0.83246452  0.19877819  0.72957860    -1.11000
O746        O  0.75469377  0.10524477  0.72804780    -0.67700
Ni747      Ni  0.81978763  0.13387932  0.69420246     1.26300
O748        O  0.94225988  0.19510105  0.76304941    -0.67900
O749        O  0.76550167  0.17150006  0.65983837    -0.80200
C750        C  0.87225255  0.06169835  0.64361426     0.83200
O751        O  0.82074050  0.06649977  0.65877439    -0.67400
Ni752      Ni  0.77116391  0.25209221  0.73974244     1.27400
Ni753      Ni  0.86907209  0.14972167  0.76866895     1.26100
H754        H  0.85958443  0.05856628  0.73568916     0.37800
O755        O  0.70548710  0.22228531  0.97732791    -0.82200
O756        O  0.66173680  0.40402054  0.61595970    -0.66900
O757        O  0.65003105  0.27174131  0.54515283    -1.13500
C758        C  0.52431395  0.39531582  0.98079743     1.04700
O759        O  0.57058350  0.37222040  0.62002817    -0.80100
O760        O  0.51045987  0.29807268  0.57148890    -0.67700
Ni761      Ni  0.71130795  0.21839784  0.53500269     1.34900
C762        C  0.50984379  0.26300327  0.54213755     0.83400
O763        O  0.71700923  0.29905594  0.61489846    -0.80600
O764        O  0.72094146  0.20729677  0.59110059    -0.90900
C765        C  0.61022498  0.40879667  0.63112498     0.83000
O766        O  0.77014047  0.27728210  0.53528852    -0.69100
O767        O  0.49964994  0.39279040  0.51544054    -0.88400
C768        C  0.76863823  0.33292344  0.53134513     0.83900
C769        C  0.72898867  0.24498766  0.61856419     1.05400
H770        H  0.62288576  0.41195269  0.53905245     0.37200
O771        O  0.60831522  0.37380033  0.54709618    -1.11000
O772        O  0.54024841  0.27541078  0.51166306    -0.67700
Ni773      Ni  0.61342983  0.32080466  0.50605730     1.26300
O774        O  0.72779923  0.36527487  0.54667948    -0.63100
O775        O  0.57513868  0.37494208  0.97319320    -0.80200
C776        C  0.66331287  0.23620085  0.95410292     0.83200
O777        O  0.62277328  0.27097973  0.96311055    -0.67400
Ni778      Ni  0.53346307  0.38113791  0.56881973     1.27400
Ni779      Ni  0.66270736  0.33664435  0.58053066     1.26100
H780        H  0.62031441  0.24783417  0.55768696     0.37800
O781        O  0.12820773  0.65590459  0.52968763    -0.82200
O782        O  0.02693434  0.60371670  0.68657515    -0.66900
O783        O  0.12977210  0.61816287  0.60261040    -1.13500
C784        C  0.00093241  0.49751003  0.53113539     1.04700
O785        O  0.97829767  0.52096360  0.67237130    -0.80100
O786        O  0.03324583  0.45632971  0.61438598    -0.67700
Ni787      Ni  0.13712940  0.69301807  0.58089639     1.34900
C788        C  0.08888599  0.45783763  0.61833525     0.83400
O789        O  0.13090622  0.65133049  0.67651732    -0.80600
O790        O  0.14878034  0.72682293  0.63428009    -0.90900
C791        C  0.99218445  0.56315700  0.69558741     0.83000
O792        O  0.05407050  0.71603271  0.57821699    -0.69100
O793        O  0.96324225  0.50555336  0.55860052    -0.88400
C794        C  0.01899298  0.71664793  0.60756275     0.83900
C795        C  0.15129579  0.70215130  0.66892120     1.05400
H796        H  0.00379311  0.60617203  0.59201446     0.37200
O797        O  0.02770333  0.57645571  0.60454578    -1.11000
O798        O  0.12123408  0.49868628  0.60301184    -0.67700
Ni799      Ni  0.09260474  0.56378252  0.56916957     1.26300
O800        O  0.03138792  0.68623862  0.63803685    -0.67900
O801        O  0.05500211  0.50949274  0.53479900    -0.80200
C802        C  0.16478000  0.61626094  0.51859241     0.83200
O803        O  0.15998329  0.56474501  0.53374554    -0.67400
Ni804      Ni  0.97436833  0.51516707  0.61469793     1.27400
Ni805      Ni  0.07676958  0.61305213  0.64364268     1.26100
H806        H  0.16792014  0.60358360  0.61065657     0.37800
O807        O  0.00411408  0.44952438  0.85228901    -0.82200
O808        O  0.82245855  0.40576651  0.49092104    -0.66900
O809        O  0.95474417  0.39401654  0.92012286    -1.13500
C810        C  0.83114156  0.26831604  0.85578550     1.04700
O811        O  0.85425588  0.31461910  0.99500418    -0.80100
O812        O  0.92837836  0.25444985  0.94647650    -0.67700
Ni813      Ni  0.00807861  0.45529705  0.90996512     1.34900
C814        C  0.96345626  0.25382091  0.91712996     0.83400
O815        O  0.92744714  0.46101072  0.48985212    -0.80600
O816        O  0.01921929  0.46487989  0.96606471    -0.90900
C817        C  0.81768006  0.35426213  0.50609597     0.83000
O818        O  0.94921689  0.51415181  0.91030740    -0.69100
O819        O  0.83365023  0.24366103  0.89043166    -0.88400
C820        C  0.89358223  0.51264709  0.90632858     0.83900
C821        C  0.98152492  0.47295391  0.49352433     1.05400
H822        H  0.81452961  0.36689465  0.91401293     0.37200
O823        O  0.85267687  0.35231954  0.92206375    -1.11000
O824        O  0.95106411  0.28422084  0.88665128    -0.67700
Ni825      Ni  0.90568934  0.35740923  0.88103135     1.26300
O826        O  0.86122016  0.47179611  0.92163549    -0.67900
O827        O  0.85155319  0.31912141  0.84816899    -0.80200
C828        C  0.99026484  0.40731312  0.82907617     0.83200
O829        O  0.95554272  0.36672901  0.83809660    -0.67400
Ni830      Ni  0.84531988  0.27748194  0.94380363     1.27400
Ni831      Ni  0.88983954  0.40671111  0.95549352     1.26100
H832        H  0.97865046  0.36430336  0.93266081     0.37800
loop_ 
_geom_bond_atom_site_label_1 
_geom_bond_atom_site_label_2 
_geom_bond_distance 
_geom_bond_site_symmetry_2 
_ccdc_geom_bond_type 
O1           Ni7   1.932       .  S
O1           C22   1.281       .  A
O2          Ni25   1.850       .  S
O2           C11   1.251       .  A
O3           Ni7   1.859       .  S
O3          Ni25   1.838       .  S
O3          Ni19   1.874       .  S
O3           H26   0.967       .  S
C4           O21   1.264   1_565  A
C4           O13   1.274   1_565  A
C4           C41   1.454       .  S
O5          Ni24   1.951       .  S
O5           C11   1.277       .  A
O6          Ni24   1.891   1_565  S
O6            C8   1.272       .  A
Ni7          O10   1.975       .  S
Ni7          O12   1.960       .  S
C8           O18   1.292       .  A
C8           C74   1.484       .  S
O9          Ni25   1.870       .  S
O9           C15   1.270       .  A
O10          C15   1.297       .  A
C11         C238   1.442       .  S
O12          C14   1.270       .  A
O13         Ni24   1.920       .  S
C14          O20   1.270       .  A
C14         C300   1.518       .  S
C15         C360   1.442       .  S
H16          O17   0.964       .  S
O17         Ni25   1.916       .  S
O17         Ni19   1.918       .  S
O17         Ni24   1.877       .  S
O18         Ni19   1.978   1_565  S
Ni19         O23   1.942       .  S
Ni19         O21   1.896       .  S
O20         Ni25   1.966       .  S
C22          O23   1.282       .  A
C22         C320   1.484       .  S
O27         Ni33   1.951       .  S
O27          C48   1.277       .  A
O28         Ni51   1.942       .  S
O28          C37   1.282       .  A
O29         Ni33   1.877       .  S
O29         Ni51   1.918       .  S
O29         Ni45   1.916       .  S
O29          H52   0.964       .  S
C30          O47   1.270       .  A
C30          O39   1.297       .  A
C30         C193   1.442       .  S
O31         Ni50   1.932       .  S
O31          C37   1.281       .  A
O32         Ni50   1.960       .  S
O32          C34   1.271       .  A
Ni33         O36   1.920       .  S
Ni33         O38   1.891   1_565  S
C34          O44   1.270       .  A
C34         C268   1.518       .  S
O35         Ni51   1.896       .  S
O35          C41   1.264       .  A
O36          C41   1.274       .  A
C37         C170   1.484       .  S
O38          C40   1.272       .  A
O39         Ni50   1.974       .  S
C40          O46   1.292   1_545  A
C40         C245   1.484       .  S
H42          O43   0.967       .  S
O43         Ni51   1.874       .  S
O43         Ni45   1.838       .  S
O43         Ni50   1.859       .  S
O44         Ni45   1.966       .  S
Ni45         O49   1.850       .  S
Ni45         O47   1.870       .  S
O46         Ni51   1.978       .  S
C48          O49   1.251       .  A
C48          C67   1.442       .  S
O53         Ni59   1.932       .  S
O53          C74   1.281       .  A
O54         Ni77   1.850       .  S
O54          C63   1.251       .  A
O55         Ni59   1.859       .  S
O55         Ni71   1.874       .  S
O55        Ni493   1.838       .  S
O55          H78   0.967       .  S
C56          O73   1.264       .  A
C56          O65   1.274       .  A
C56          C93   1.454       .  S
O57        Ni492   1.951   1_554  S
O57          C63   1.277       .  A
O58        Ni492   1.891       .  S
O58         C476   1.272       .  A
Ni59         O64   1.961       .  S
Ni59        O478   1.974       .  S
C60          O70   1.292       .  A
C60         O474   1.272       .  A
C60         C568   1.484       .  S
O61         Ni77   1.870       .  S
O61          C67   1.270       .  A
O62        Ni475   1.974   1_554  S
O62          C67   1.297       .  A
C63         C264   1.442       .  S
O64          C66   1.271       .  A
O65         Ni76   1.920       .  S
C66          O72   1.270       .  A
C66         C196   1.518       .  S
H68          O69   0.964       .  S
O69         Ni71   1.918       .  S
O69         Ni76   1.877       .  S
O69        Ni493   1.916       .  S
O70         Ni71   1.978       .  S
Ni71         O75   1.942       .  S
Ni71         O73   1.896       .  S
O72        Ni493   1.966       .  S
C74          O75   1.282       .  A
Ni76        O473   1.951       .  S
Ni76        O474   1.891       .  S
Ni77        O488   1.966       .  S
Ni77        O471   1.838   1_554  S
Ni77        O485   1.916   1_554  S
O79         Ni85   1.951       .  S
O79         C100   1.277       .  A
O80        Ni103   1.942       .  S
O80          C89   1.282       .  A
O81         Ni85   1.878       .  S
O81        Ni103   1.918       .  S
O81         Ni97   1.916       .  S
O81         H104   0.964       .  S
C82          O99   1.270       .  A
C82          O91   1.297       .  A
C82         C375   1.442       .  S
O83        Ni102   1.932       .  S
O83          C89   1.281       .  A
O84        Ni102   1.960       .  S
O84          C86   1.271       .  A
Ni85         O88   1.920       .  S
Ni85         O90   1.891       .  S
C86          O96   1.270       .  A
C86         C164   1.518   1_655  S
O87        Ni103   1.896       .  S
O87          C93   1.264       .  A
O88          C93   1.274       .  A
C89         C404   1.484       .  S
O90          C92   1.272       .  A
O91        Ni102   1.974       .  S
C92          O98   1.292       .  A
C92         C271   1.484       .  S
H94          O95   0.967       .  S
O95        Ni103   1.874       .  S
O95         Ni97   1.838       .  S
O95        Ni102   1.859       .  S
O96         Ni97   1.966       .  S
Ni97        O101   1.850       .  S
Ni97         O99   1.870       .  S
O98        Ni103   1.978       .  S
C100        O101   1.251       .  A
C100        C145   1.442       .  S
O105       Ni111   1.951       .  S
O105        C126   1.277       .  A
O106       Ni129   1.942       .  S
O106        C531   1.282       .  A
O107       Ni111   1.877   1_455  S
O107       Ni129   1.918       .  S
O107       Ni123   1.916       .  S
O107        H130   0.964       .  S
C108        O125   1.270       .  A
C108        O117   1.297       .  A
C108        C219   1.442       .  S
O109       Ni128   1.932       .  S
O109        C531   1.281       .  A
O110       Ni128   1.960       .  S
O110        C112   1.270       .  A
Ni111       O114   1.920       .  S
Ni111       O116   1.891   1_645  S
C112        O122   1.270       .  A
C112        C398   1.518   1_455  S
O113       Ni545   1.896       .  S
O113        C119   1.264   1_545  A
O114        C535   1.274   1_645  A
C115        O522   1.282   1_554  A
C115        O525   1.281   1_554  A
C115        C248   1.484       .  S
O116        C118   1.272       .  A
O117       Ni128   1.975       .  S
C118        O124   1.292       .  A
C118        C167   1.484       .  S
C119        O530   1.274   1_465  A
C119        C134   1.454   1_456  S
H120        O121   0.967       .  S
O121       Ni129   1.874       .  S
O121       Ni123   1.838       .  S
O121       Ni128   1.859       .  S
O122       Ni123   1.966       .  S
Ni123       O127   1.850       .  S
Ni123       O125   1.870       .  S
O124       Ni129   1.978   1_565  S
C126        O127   1.251   1_655  A
C126        C327   1.442       .  S
Ni129       O529   1.896       .  S
O131       Ni137   1.932       .  S
O131        C152   1.281       .  A
O132       Ni155   1.850       .  S
O132        C141   1.251       .  A
O133       Ni137   1.859       .  S
O133       Ni155   1.838       .  S
O133       Ni149   1.874       .  S
O133        H156   0.967       .  S
C134        O151   1.264       .  A
C134        O143   1.274   1_655  A
O135       Ni154   1.951       .  S
O135        C141   1.277   1_455  A
O136       Ni154   1.891   1_645  S
O136        C138   1.272       .  A
Ni137       O140   1.974       .  S
Ni137       O142   1.960       .  S
C138        O148   1.292   1_545  A
C138        C334   1.484       .  S
O139       Ni155   1.870       .  S
O139        C145   1.270       .  A
O140        C145   1.297       .  A
C141        C160   1.442   1_655  S
O142        C144   1.271       .  A
O143       Ni154   1.920       .  S
C144        O150   1.270       .  A
C144        C378   1.518   1_655  S
H146        O147   0.964       .  S
O147       Ni155   1.916       .  S
O147       Ni149   1.918       .  S
O147       Ni154   1.877   1_655  S
O148       Ni149   1.978       .  S
Ni149       O153   1.942       .  S
Ni149       O151   1.896       .  S
O150       Ni155   1.966       .  S
C152        O153   1.282       .  A
C152        C476   1.484   1_554  S
O157       Ni163   1.951       .  S
O157        C178   1.277       .  A
O158       Ni181   1.942       .  S
O158        C167   1.282       .  A
O159       Ni163   1.877       .  S
O159       Ni181   1.918       .  S
O159       Ni175   1.916       .  S
O159        H182   0.964       .  S
C160        O177   1.270       .  A
C160        O169   1.297   1_455  A
O161       Ni180   1.932       .  S
O161        C167   1.281       .  A
O162       Ni180   1.960       .  S
O162        C164   1.271       .  A
Ni163       O166   1.920       .  S
Ni163       O168   1.891       .  S
C164        O174   1.270       .  A
O165       Ni181   1.896       .  S
O165        C171   1.264       .  A
O166        C171   1.274       .  A
O168        C170   1.272       .  A
O169       Ni180   1.974   1_655  S
C170        O176   1.292       .  A
C171        C186   1.454       .  S
H172        O173   0.967       .  S
O173       Ni181   1.874       .  S
O173       Ni175   1.838       .  S
O173       Ni180   1.859       .  S
O174       Ni175   1.966       .  S
Ni175       O179   1.850       .  S
Ni175       O177   1.870       .  S
O176       Ni181   1.978       .  S
C178        O179   1.251       .  A
C178        C379   1.442       .  S
O183       Ni189   1.932       .  S
O183        C204   1.281       .  A
O184       Ni207   1.850       .  S
O184        C193   1.251       .  A
O185       Ni189   1.859       .  S
O185       Ni201   1.874       .  S
O185       Ni623   1.838       .  S
O185        H208   0.967       .  S
C186        O203   1.264       .  A
C186        O195   1.274       .  A
O187       Ni622   1.951   1_554  S
O187        C193   1.277       .  A
O188       Ni622   1.891       .  S
O188        C606   1.272       .  A
Ni189       O194   1.960       .  S
Ni189       O608   1.974       .  S
C190        O200   1.292       .  A
C190        O604   1.272       .  A
C190        C802   1.484       .  S
O191       Ni207   1.870       .  S
O191        C197   1.270       .  A
O192       Ni605   1.974   1_554  S
O192        C197   1.297       .  A
O194        C196   1.271       .  A
O195       Ni206   1.920       .  S
C196        O202   1.270       .  A
C197        C282   1.442       .  S
H198        O199   0.964       .  S
O199       Ni201   1.918       .  S
O199       Ni206   1.877       .  S
O199       Ni623   1.916       .  S
O200       Ni201   1.978       .  S
Ni201       O205   1.942       .  S
Ni201       O203   1.896       .  S
O202       Ni623   1.966       .  S
C204        O205   1.282       .  A
C204        C294   1.484       .  S
Ni206       O603   1.951       .  S
Ni206       O604   1.891       .  S
Ni207       O618   1.966       .  S
Ni207       O601   1.838   1_554  S
Ni207       O615   1.916   1_554  S
O209       Ni215   1.932       .  S
O209        C230   1.281       .  A
O210       Ni233   1.850       .  S
O210        C219   1.251       .  A
O211       Ni215   1.859       .  S
O211       Ni233   1.838       .  S
O211       Ni227   1.874       .  S
O211        H234   0.967       .  S
C212        O229   1.264       .  A
C212        O221   1.274       .  A
C212        C249   1.454       .  S
O213       Ni232   1.951       .  S
O213        C219   1.277       .  A
O214       Ni232   1.891       .  S
O214        C216   1.272       .  A
Ni215       O218   1.974   1_455  S
Ni215       O220   1.960       .  S
C216        O226   1.292       .  A
C216        C308   1.484       .  S
O217       Ni233   1.870       .  S
O217        C223   1.270       .  A
O218        C223   1.297   1_655  A
O220        C222   1.271       .  A
O221       Ni232   1.920       .  S
C222        O228   1.270       .  A
C222        C326   1.518   1_455  S
C223        C412   1.442   1_455  S
H224        O225   0.964       .  S
O225       Ni233   1.916       .  S
O225       Ni227   1.918       .  S
O225       Ni232   1.877       .  S
O226       Ni227   1.978       .  S
Ni227       O231   1.942       .  S
Ni227       O229   1.896       .  S
O228       Ni233   1.966       .  S
C230        O231   1.282       .  A
C230        C372   1.484       .  S
O235       Ni657   1.951       .  S
O235        C256   1.277       .  A
O236       Ni259   1.942       .  S
O236        C245   1.282       .  A
O237       Ni241   1.877       .  S
O237       Ni259   1.918       .  S
O237       Ni253   1.916       .  S
O237        H260   0.964       .  S
C238        O255   1.270       .  A
C238        O663   1.297       .  A
O239       Ni258   1.932       .  S
O239        C245   1.281       .  A
O240       Ni258   1.961       .  S
O240        C242   1.271       .  A
Ni241       O244   1.920       .  S
Ni241       O246   1.891       .  S
Ni241       O651   1.951   1_554  S
C242        O252   1.270       .  A
C242        C346   1.518       .  S
O243       Ni259   1.896       .  S
O243        C249   1.264       .  A
O244        C249   1.274       .  A
O246        C248   1.272       .  A
O247       Ni258   1.974       .  S
O247        C654   1.297   1_554  A
C248        O254   1.292       .  A
H250        O251   0.967       .  S
O251       Ni259   1.874       .  S
O251       Ni253   1.838       .  S
O251       Ni258   1.859       .  S
O252       Ni253   1.966       .  S
Ni253       O673   1.850   1_554  S
Ni253       O671   1.870   1_554  S
O254       Ni259   1.978       .  S
O255       Ni669   1.870       .  S
C256        O257   1.251       .  A
C256        C301   1.442       .  S
O257       Ni669   1.850       .  S
O261       Ni267   1.951       .  S
O261        C282   1.277       .  A
O262       Ni285   1.942       .  S
O262        C271   1.282       .  A
O263       Ni267   1.878       .  S
O263       Ni285   1.918       .  S
O263       Ni279   1.916       .  S
O263        H286   0.964       .  S
C264        O281   1.270       .  A
C264        O273   1.297       .  A
O265       Ni284   1.932       .  S
O265        C271   1.281       .  A
O266       Ni284   1.960       .  S
O266        C268   1.270       .  A
Ni267       O270   1.920       .  S
Ni267       O272   1.891       .  S
C268        O278   1.270       .  A
O269       Ni285   1.896       .  S
O269        C275   1.264       .  A
O270        C275   1.274       .  A
O272        C274   1.272       .  A
O273       Ni284   1.975       .  S
C274        O280   1.292       .  A
C274        C349   1.484       .  S
C275        C290   1.454       .  S
H276        O277   0.967       .  S
O277       Ni285   1.874       .  S
O277       Ni279   1.838       .  S
O277       Ni284   1.859       .  S
O278       Ni279   1.966       .  S
Ni279       O283   1.850       .  S
Ni279       O281   1.870       .  S
O280       Ni285   1.978       .  S
C282        O283   1.251       .  A
O287       Ni293   1.932       .  S
O287        C308   1.281       .  A
O288       Ni311   1.850       .  S
O288        C297   1.251       .  A
O289       Ni293   1.859       .  S
O289       Ni311   1.838       .  S
O289       Ni305   1.874       .  S
O289        H312   0.967       .  S
C290        O307   1.264       .  A
C290        O299   1.274       .  A
O291       Ni310   1.951       .  S
O291        C297   1.277       .  A
O292       Ni310   1.891       .  S
O292        C294   1.272       .  A
Ni293       O296   1.974       .  S
Ni293       O298   1.961       .  S
C294        O304   1.292       .  A
O295       Ni311   1.870       .  S
O295        C301   1.270       .  A
O296        C301   1.297       .  A
C297        C342   1.442       .  S
O298        C300   1.271       .  A
O299       Ni310   1.920       .  S
C300        O306   1.270       .  A
H302        O303   0.964       .  S
O303       Ni311   1.916       .  S
O303       Ni305   1.918       .  S
O303       Ni310   1.877       .  S
O304       Ni305   1.978       .  S
Ni305       O309   1.942       .  S
Ni305       O307   1.896       .  S
O306       Ni311   1.966       .  S
C308        O309   1.282       .  A
O313       Ni319   1.932       .  S
O313        C334   1.281       .  A
O314       Ni337   1.850       .  S
O314        C323   1.251       .  A
O315       Ni319   1.859       .  S
O315       Ni337   1.838       .  S
O315       Ni331   1.874       .  S
O315        H338   0.967       .  S
C316        O333   1.264       .  A
C316        O325   1.274       .  A
C316        C353   1.454       .  S
O317       Ni336   1.951       .  S
O317        C323   1.277       .  A
O318       Ni336   1.891       .  S
O318        C320   1.272       .  A
Ni319       O322   1.974       .  S
Ni319       O324   1.960       .  S
C320        O330   1.292       .  A
O321       Ni337   1.870       .  S
O321        C327   1.270       .  A
O322        C327   1.297       .  A
C323        C394   1.442       .  S
O324        C326   1.270       .  A
O325       Ni336   1.920       .  S
C326        O332   1.270       .  A
H328        O329   0.964       .  S
O329       Ni337   1.916       .  S
O329       Ni331   1.918       .  S
O329       Ni336   1.878       .  S
O330       Ni331   1.978       .  S
Ni331       O335   1.942       .  S
Ni331       O333   1.896       .  S
O332       Ni337   1.966       .  S
C334        O335   1.282       .  A
O339       Ni761   1.951       .  S
O339        C360   1.277       .  A
O340       Ni363   1.942       .  S
O340        C349   1.282       .  A
O341       Ni345   1.877       .  S
O341       Ni363   1.918       .  S
O341       Ni357   1.916       .  S
O341        H364   0.964       .  S
C342        O359   1.270       .  A
C342        O767   1.297       .  A
O343       Ni362   1.932       .  S
O343        C349   1.281       .  A
O344       Ni362   1.961       .  S
O344        C346   1.271       .  A
Ni345       O348   1.920       .  S
Ni345       O350   1.891       .  S
Ni345       O755   1.951   1_554  S
C346        O356   1.270       .  A
O347       Ni363   1.896       .  S
O347        C353   1.264       .  A
O348        C353   1.274       .  A
O350        C352   1.272       .  A
O351       Ni362   1.974       .  S
O351        C758   1.297   1_554  A
C352        O358   1.292       .  A
C352        C401   1.484       .  S
H354        O355   0.967       .  S
O355       Ni363   1.874       .  S
O355       Ni357   1.838       .  S
O355       Ni362   1.859       .  S
O356       Ni357   1.966       .  S
Ni357       O777   1.850   1_554  S
Ni357       O775   1.870   1_554  S
O358       Ni363   1.978       .  S
O359       Ni773   1.870       .  S
C360        O361   1.251       .  A
O361       Ni773   1.850       .  S
O365       Ni371   1.932       .  S
O365        C386   1.281       .  A
O366       Ni389   1.850       .  S
O366        C375   1.251   1_455  A
O367       Ni371   1.859       .  S
O367       Ni389   1.838       .  S
O367       Ni383   1.874       .  S
O367        H390   0.967       .  S
C368        O385   1.264       .  A
C368        O377   1.274   1_455  A
C368        C405   1.454   1_454  S
O369       Ni388   1.951       .  S
O369        C375   1.277       .  A
O370       Ni388   1.891   1_455  S
O370        C372   1.272       .  A
Ni371       O374   1.975       .  S
Ni371       O376   1.960       .  S
C372        O382   1.292       .  A
O373       Ni389   1.870       .  S
O373        C379   1.270       .  A
O374        C379   1.297       .  A
O376        C378   1.270       .  A
O377       Ni388   1.920       .  S
C378        O384   1.270       .  A
H380        O381   0.964       .  S
O381       Ni389   1.916       .  S
O381       Ni383   1.918       .  S
O381       Ni388   1.878   1_455  S
O382       Ni383   1.978       .  S
Ni383       O387   1.942       .  S
Ni383       O385   1.896       .  S
O384       Ni389   1.966       .  S
C386        O387   1.282       .  A
C386        C606   1.484   1_554  S
O391       Ni397   1.951       .  S
O391        C412   1.277   1_455  A
O392       Ni831   1.942       .  S
O392        C401   1.282   1_556  A
O393       Ni397   1.877   1_655  S
O393       Ni415   1.918       .  S
O393       Ni409   1.916       .  S
O393        H416   0.964       .  S
C394        O411   1.270       .  A
C394        O403   1.297       .  A
O395       Ni414   1.932       .  S
O395        C817   1.281       .  A
O396       Ni414   1.961       .  S
O396        C398   1.271       .  A
Ni397       O400   1.920       .  S
Ni397       O402   1.891   1_455  S
C398        O408   1.270       .  A
O399       Ni831   1.896       .  S
O399        C405   1.264       .  A
O400        C821   1.274   1_455  A
C401        O811   1.281   1_554  A
O402        C404   1.272       .  A
O403       Ni414   1.974       .  S
C404        O410   1.292       .  A
C405        O816   1.274   1_655  A
H406        O407   0.967       .  S
O407       Ni415   1.874       .  S
O407       Ni409   1.838       .  S
O407       Ni414   1.859       .  S
O408       Ni409   1.966       .  S
Ni409       O413   1.850       .  S
Ni409       O411   1.870       .  S
O410       Ni415   1.978       .  S
C412        O413   1.251       .  A
Ni415       O808   1.942       .  S
Ni415       O815   1.896       .  S
O417       Ni423   1.932       .  S
O417        C438   1.281       .  A
O418       Ni441   1.850       .  S
O418        C427   1.251       .  A
O419       Ni423   1.859       .  S
O419       Ni441   1.838       .  S
O419       Ni435   1.874       .  S
O419        H442   0.967       .  S
C420        O437   1.264   1_565  A
C420        O429   1.274   1_565  A
C420        C457   1.454       .  S
O421       Ni440   1.951       .  S
O421        C427   1.277       .  A
O422       Ni440   1.891   1_565  S
O422        C424   1.272       .  A
Ni423       O426   1.975       .  S
Ni423       O428   1.960       .  S
C424        O434   1.292       .  A
C424        C490   1.484       .  S
O425       Ni441   1.870       .  S
O425        C431   1.270       .  A
O426        C431   1.297       .  A
C427        C654   1.442       .  S
O428        C430   1.270       .  A
O429       Ni440   1.920       .  S
C430        O436   1.270       .  A
C430        C716   1.518       .  S
C431        C776   1.442       .  S
H432        O433   0.964       .  S
O433       Ni441   1.916       .  S
O433       Ni435   1.918       .  S
O433       Ni440   1.877       .  S
O434       Ni435   1.978   1_565  S
Ni435       O439   1.942       .  S
Ni435       O437   1.896       .  S
O436       Ni441   1.966       .  S
C438        O439   1.282       .  A
C438        C736   1.484       .  S
O443       Ni449   1.951       .  S
O443        C464   1.277       .  A
O444       Ni467   1.942       .  S
O444        C453   1.282       .  A
O445       Ni449   1.877       .  S
O445       Ni467   1.918       .  S
O445       Ni461   1.916       .  S
O445        H468   0.964       .  S
C446        O463   1.270       .  A
C446        O455   1.297       .  A
C446        C609   1.442       .  S
O447       Ni466   1.932       .  S
O447        C453   1.281       .  A
O448       Ni466   1.960       .  S
O448        C450   1.271       .  A
Ni449       O452   1.920       .  S
Ni449       O454   1.891   1_565  S
C450        O460   1.270       .  A
C450        C684   1.518       .  S
O451       Ni467   1.896       .  S
O451        C457   1.264       .  A
O452        C457   1.274       .  A
C453        C586   1.484       .  S
O454        C456   1.272       .  A
O455       Ni466   1.974       .  S
C456        O462   1.292   1_545  A
C456        C661   1.484       .  S
H458        O459   0.967       .  S
O459       Ni467   1.874       .  S
O459       Ni461   1.838       .  S
O459       Ni466   1.859       .  S
O460       Ni461   1.966       .  S
Ni461       O465   1.850       .  S
Ni461       O463   1.870       .  S
O462       Ni467   1.978       .  S
C464        O465   1.251       .  A
C464        C483   1.442       .  S
O469       Ni475   1.932       .  S
O469        C490   1.281       .  A
O470       Ni493   1.850       .  S
O470        C479   1.251       .  A
O471       Ni475   1.859       .  S
O471       Ni487   1.874       .  S
O471        H494   0.967       .  S
C472        O489   1.264       .  A
C472        O481   1.274       .  A
C472        C509   1.454       .  S
O473        C479   1.277       .  A
Ni475       O480   1.961       .  S
C476        O486   1.292       .  A
O477       Ni493   1.870       .  S
O477        C483   1.270       .  A
O478        C483   1.297       .  A
C479        C680   1.442       .  S
O480        C482   1.271       .  A
O481       Ni492   1.920       .  S
C482        O488   1.270   1_556  A
C482        C612   1.518       .  S
H484        O485   0.964       .  S
O485       Ni487   1.918       .  S
O485       Ni492   1.877       .  S
O486       Ni487   1.978       .  S
Ni487       O491   1.942       .  S
Ni487       O489   1.896       .  S
C490        O491   1.282       .  A
O495       Ni501   1.951       .  S
O495        C516   1.277       .  A
O496       Ni519   1.942       .  S
O496        C505   1.282       .  A
O497       Ni501   1.878       .  S
O497       Ni519   1.918       .  S
O497       Ni513   1.916       .  S
O497        H520   0.964       .  S
C498        O515   1.270       .  A
C498        O507   1.297       .  A
C498        C791   1.442       .  S
O499       Ni518   1.932       .  S
O499        C505   1.281       .  A
O500       Ni518   1.960       .  S
O500        C502   1.271       .  A
Ni501       O504   1.920       .  S
Ni501       O506   1.891       .  S
C502        O512   1.270       .  A
C502        C580   1.518   1_655  S
O503       Ni519   1.896       .  S
O503        C509   1.264       .  A
O504        C509   1.274       .  A
C505        C820   1.484       .  S
O506        C508   1.272       .  A
O507       Ni518   1.974       .  S
C508        O514   1.292       .  A
C508        C687   1.484       .  S
H510        O511   0.967       .  S
O511       Ni519   1.874       .  S
O511       Ni513   1.838       .  S
O511       Ni518   1.859       .  S
O512       Ni513   1.966       .  S
Ni513       O517   1.850       .  S
Ni513       O515   1.870       .  S
O514       Ni519   1.978       .  S
C516        O517   1.251       .  A
C516        C561   1.442       .  S
O521       Ni527   1.951       .  S
O521        C542   1.277       .  A
O522       Ni545   1.942       .  S
O523       Ni527   1.877   1_455  S
O523       Ni545   1.918       .  S
O523       Ni539   1.916       .  S
O523        H546   0.964       .  S
C524        O541   1.270       .  A
C524        O533   1.297       .  A
C524        C635   1.442       .  S
O525       Ni544   1.932       .  S
O526       Ni544   1.960       .  S
O526        C528   1.270       .  A
Ni527       O530   1.920       .  S
Ni527       O532   1.891   1_645  S
C528        O538   1.270       .  A
C528        C814   1.518   1_455  S
O529        C535   1.264   1_545  A
C531        C664   1.484       .  S
O532        C534   1.272       .  A
O533       Ni544   1.975       .  S
C534        O540   1.292       .  A
C534        C583   1.484       .  S
C535        C550   1.454   1_455  S
H536        O537   0.967       .  S
O537       Ni545   1.874       .  S
O537       Ni539   1.838       .  S
O537       Ni544   1.859       .  S
O538       Ni539   1.966       .  S
Ni539       O543   1.850       .  S
Ni539       O541   1.870       .  S
O540       Ni545   1.978   1_565  S
C542        O543   1.251   1_655  A
C542        C743   1.442       .  S
O547       Ni553   1.932       .  S
O547        C568   1.281       .  A
O548       Ni571   1.850       .  S
O548        C557   1.251       .  A
O549       Ni553   1.859       .  S
O549       Ni571   1.838       .  S
O549       Ni565   1.874       .  S
O549        H572   0.967       .  S
C550        O567   1.264       .  A
C550        O559   1.274   1_655  A
O551       Ni570   1.951       .  S
O551        C557   1.277   1_455  A
O552       Ni570   1.891   1_645  S
O552        C554   1.272       .  A
Ni553       O556   1.974       .  S
Ni553       O558   1.960       .  S
C554        O564   1.292   1_545  A
C554        C750   1.484       .  S
O555       Ni571   1.870       .  S
O555        C561   1.270       .  A
O556        C561   1.297       .  A
C557        C576   1.442   1_655  S
O558        C560   1.271       .  A
O559       Ni570   1.920       .  S
C560        O566   1.270       .  A
C560        C794   1.518   1_655  S
H562        O563   0.964       .  S
O563       Ni571   1.916       .  S
O563       Ni565   1.918       .  S
O563       Ni570   1.877   1_655  S
O564       Ni565   1.978       .  S
Ni565       O569   1.942       .  S
Ni565       O567   1.896       .  S
O566       Ni571   1.966       .  S
C568        O569   1.282       .  A
O573       Ni579   1.951       .  S
O573        C594   1.277       .  A
O574       Ni597   1.942       .  S
O574        C583   1.282       .  A
O575       Ni579   1.877       .  S
O575       Ni597   1.918       .  S
O575       Ni591   1.916       .  S
O575        H598   0.964       .  S
C576        O593   1.270       .  A
C576        O585   1.297   1_455  A
O577       Ni596   1.932       .  S
O577        C583   1.281       .  A
O578       Ni596   1.960       .  S
O578        C580   1.271       .  A
Ni579       O582   1.920       .  S
Ni579       O584   1.891       .  S
C580        O590   1.270       .  A
O581       Ni597   1.896       .  S
O581        C587   1.264       .  A
O582        C587   1.274       .  A
O584        C586   1.272       .  A
O585       Ni596   1.974   1_655  S
C586        O592   1.292       .  A
C587        C602   1.454       .  S
H588        O589   0.967       .  S
O589       Ni597   1.874       .  S
O589       Ni591   1.838       .  S
O589       Ni596   1.859       .  S
O590       Ni591   1.966       .  S
Ni591       O595   1.850       .  S
Ni591       O593   1.870       .  S
O592       Ni597   1.978       .  S
C594        O595   1.251       .  A
C594        C795   1.442       .  S
O599       Ni605   1.932       .  S
O599        C620   1.281       .  A
O600       Ni623   1.850       .  S
O600        C609   1.251       .  A
O601       Ni605   1.859       .  S
O601       Ni617   1.874       .  S
O601        H624   0.967       .  S
C602        O619   1.264       .  A
C602        O611   1.274       .  A
O603        C609   1.277       .  A
Ni605       O610   1.960       .  S
C606        O616   1.292       .  A
O607       Ni623   1.870       .  S
O607        C613   1.270       .  A
O608        C613   1.297       .  A
O610        C612   1.271       .  A
O611       Ni622   1.920       .  S
C612        O618   1.270   1_556  A
C613        C698   1.442       .  S
H614        O615   0.964       .  S
O615       Ni617   1.918       .  S
O615       Ni622   1.877       .  S
O616       Ni617   1.978       .  S
Ni617       O621   1.942       .  S
Ni617       O619   1.896       .  S
C620        O621   1.282       .  A
C620        C710   1.484       .  S
O625       Ni631   1.932       .  S
O625        C646   1.281       .  A
O626       Ni649   1.850       .  S
O626        C635   1.251       .  A
O627       Ni631   1.859       .  S
O627       Ni649   1.838       .  S
O627       Ni643   1.874       .  S
O627        H650   0.967       .  S
C628        O645   1.264       .  A
C628        O637   1.274       .  A
C628        C665   1.454       .  S
O629       Ni648   1.951       .  S
O629        C635   1.277       .  A
O630       Ni648   1.891       .  S
O630        C632   1.272       .  A
Ni631       O634   1.974   1_455  S
Ni631       O636   1.960       .  S
C632        O642   1.292       .  A
C632        C724   1.484       .  S
O633       Ni649   1.870       .  S
O633        C639   1.270       .  A
O634        C639   1.297   1_655  A
O636        C638   1.271       .  A
O637       Ni648   1.920       .  S
C638        O644   1.270       .  A
C638        C742   1.518   1_455  S
C639        C828   1.442   1_455  S
H640        O641   0.964       .  S
O641       Ni649   1.916       .  S
O641       Ni643   1.918       .  S
O641       Ni648   1.877       .  S
O642       Ni643   1.978       .  S
Ni643       O647   1.942       .  S
Ni643       O645   1.896       .  S
O644       Ni649   1.966       .  S
C646        O647   1.282       .  A
C646        C788   1.484       .  S
O651        C672   1.277       .  A
O652       Ni675   1.942       .  S
O652        C661   1.282       .  A
O653       Ni657   1.877       .  S
O653       Ni675   1.918       .  S
O653       Ni669   1.916       .  S
O653        H676   0.964       .  S
C654        O671   1.270       .  A
O655       Ni674   1.932       .  S
O655        C661   1.281       .  A
O656       Ni674   1.961       .  S
O656        C658   1.271       .  A
Ni657       O660   1.920       .  S
Ni657       O662   1.891       .  S
C658        O668   1.270       .  A
C658        C762   1.518       .  S
O659       Ni675   1.896       .  S
O659        C665   1.264       .  A
O660        C665   1.274       .  A
O662        C664   1.272       .  A
O663       Ni674   1.974       .  S
C664        O670   1.292       .  A
H666        O667   0.967       .  S
O667       Ni675   1.874       .  S
O667       Ni669   1.838       .  S
O667       Ni674   1.859       .  S
O668       Ni669   1.966       .  S
O670       Ni675   1.978       .  S
C672        O673   1.251       .  A
C672        C717   1.442       .  S
O677       Ni683   1.951       .  S
O677        C698   1.277       .  A
O678       Ni701   1.942       .  S
O678        C687   1.282       .  A
O679       Ni683   1.878       .  S
O679       Ni701   1.918       .  S
O679       Ni695   1.916       .  S
O679        H702   0.964       .  S
C680        O697   1.270       .  A
C680        O689   1.297       .  A
O681       Ni700   1.932       .  S
O681        C687   1.281       .  A
O682       Ni700   1.960       .  S
O682        C684   1.270       .  A
Ni683       O686   1.920       .  S
Ni683       O688   1.891       .  S
C684        O694   1.270       .  A
O685       Ni701   1.896       .  S
O685        C691   1.264       .  A
O686        C691   1.274       .  A
O688        C690   1.272       .  A
O689       Ni700   1.975       .  S
C690        O696   1.292       .  A
C690        C765   1.484       .  S
C691        C706   1.454       .  S
H692        O693   0.967       .  S
O693       Ni701   1.874       .  S
O693       Ni695   1.838       .  S
O693       Ni700   1.859       .  S
O694       Ni695   1.966       .  S
Ni695       O699   1.850       .  S
Ni695       O697   1.870       .  S
O696       Ni701   1.978       .  S
C698        O699   1.251       .  A
O703       Ni709   1.932       .  S
O703        C724   1.281       .  A
O704       Ni727   1.850       .  S
O704        C713   1.251       .  A
O705       Ni709   1.859       .  S
O705       Ni727   1.838       .  S
O705       Ni721   1.874       .  S
O705        H728   0.967       .  S
C706        O723   1.264       .  A
C706        O715   1.274       .  A
O707       Ni726   1.951       .  S
O707        C713   1.277       .  A
O708       Ni726   1.891       .  S
O708        C710   1.272       .  A
Ni709       O712   1.974       .  S
Ni709       O714   1.961       .  S
C710        O720   1.292       .  A
O711       Ni727   1.870       .  S
O711        C717   1.270       .  A
O712        C717   1.297       .  A
C713        C758   1.442       .  S
O714        C716   1.271       .  A
O715       Ni726   1.920       .  S
C716        O722   1.270       .  A
H718        O719   0.964       .  S
O719       Ni727   1.916       .  S
O719       Ni721   1.918       .  S
O719       Ni726   1.877       .  S
O720       Ni721   1.978       .  S
Ni721       O725   1.942       .  S
Ni721       O723   1.896       .  S
O722       Ni727   1.966       .  S
C724        O725   1.282       .  A
O729       Ni735   1.932       .  S
O729        C750   1.281       .  A
O730       Ni753   1.850       .  S
O730        C739   1.251       .  A
O731       Ni735   1.859       .  S
O731       Ni753   1.838       .  S
O731       Ni747   1.874       .  S
O731        H754   0.967       .  S
C732        O749   1.264       .  A
C732        O741   1.274       .  A
C732        C769   1.454       .  S
O733       Ni752   1.951       .  S
O733        C739   1.277       .  A
O734       Ni752   1.891       .  S
O734        C736   1.272       .  A
Ni735       O738   1.974       .  S
Ni735       O740   1.960       .  S
C736        O746   1.292       .  A
O737       Ni753   1.870       .  S
O737        C743   1.270       .  A
O738        C743   1.297       .  A
C739        C810   1.442       .  S
O740        C742   1.270       .  A
O741       Ni752   1.920       .  S
C742        O748   1.270       .  A
H744        O745   0.964       .  S
O745       Ni753   1.916       .  S
O745       Ni747   1.918       .  S
O745       Ni752   1.878       .  S
O746       Ni747   1.978       .  S
Ni747       O751   1.942       .  S
Ni747       O749   1.896       .  S
O748       Ni753   1.966       .  S
C750        O751   1.282       .  A
O755        C776   1.277       .  A
O756       Ni779   1.942       .  S
O756        C765   1.282       .  A
O757       Ni761   1.877       .  S
O757       Ni779   1.918       .  S
O757       Ni773   1.916       .  S
O757        H780   0.964       .  S
C758        O775   1.270       .  A
O759       Ni778   1.932       .  S
O759        C765   1.281       .  A
O760       Ni778   1.961       .  S
O760        C762   1.271       .  A
Ni761       O764   1.920       .  S
Ni761       O766   1.891       .  S
C762        O772   1.270       .  A
O763       Ni779   1.896       .  S
O763        C769   1.264       .  A
O764        C769   1.274       .  A
O766        C768   1.272       .  A
O767       Ni778   1.974       .  S
C768        O774   1.292       .  A
C768        C817   1.484       .  S
H770        O771   0.967       .  S
O771       Ni779   1.874       .  S
O771       Ni773   1.838       .  S
O771       Ni778   1.859       .  S
O772       Ni773   1.966       .  S
O774       Ni779   1.978       .  S
C776        O777   1.251       .  A
O781       Ni787   1.932       .  S
O781        C802   1.281       .  A
O782       Ni805   1.850       .  S
O782        C791   1.251   1_455  A
O783       Ni787   1.859       .  S
O783       Ni805   1.838       .  S
O783       Ni799   1.874       .  S
O783        H806   0.967       .  S
C784        O801   1.264       .  A
C784        O793   1.274   1_455  A
C784        C821   1.454   1_455  S
O785       Ni804   1.951       .  S
O785        C791   1.277       .  A
O786       Ni804   1.891   1_455  S
O786        C788   1.272       .  A
Ni787       O790   1.975       .  S
Ni787       O792   1.960       .  S
C788        O798   1.292       .  A
O789       Ni805   1.870       .  S
O789        C795   1.270       .  A
O790        C795   1.297       .  A
O792        C794   1.270       .  A
O793       Ni804   1.920       .  S
C794        O800   1.270       .  A
H796        O797   0.964       .  S
O797       Ni805   1.916       .  S
O797       Ni799   1.918       .  S
O797       Ni804   1.878   1_455  S
O798       Ni799   1.978       .  S
Ni799       O803   1.942       .  S
Ni799       O801   1.896       .  S
O800       Ni805   1.966       .  S
C802        O803   1.282       .  A
O807       Ni813   1.951       .  S
O807        C828   1.277   1_455  A
O808        C817   1.282       .  A
O809       Ni813   1.877   1_655  S
O809       Ni831   1.918       .  S
O809       Ni825   1.916       .  S
O809        H832   0.964       .  S
C810        O827   1.270       .  A
C810        O819   1.297       .  A
O811       Ni830   1.932       .  S
O812       Ni830   1.961       .  S
O812        C814   1.271       .  A
Ni813       O816   1.920       .  S
Ni813       O818   1.891   1_455  S
C814        O824   1.270       .  A
O815        C821   1.264       .  A
O818        C820   1.272       .  A
O819       Ni830   1.974       .  S
C820        O826   1.292       .  A
H822        O823   0.967       .  S
O823       Ni831   1.874       .  S
O823       Ni825   1.838       .  S
O823       Ni830   1.859       .  S
O824       Ni825   1.966       .  S
Ni825       O829   1.850       .  S
Ni825       O827   1.870       .  S
O826       Ni831   1.978       .  S
C828        O829   1.251       .  A
