geometry optimzed in LAMMPS
_audit_creation_date              2020-12-01 
_audit_creation_method            'lammps2cif' 
_symmetry_space_group_name_H-M    'P1' 
_symmetry_Int_Tables_number       1 
_symmetry_cell_setting            triclinic 
loop_ 
_symmetry_equiv_pos_as_xyz 
  x,y,z 
_cell_length_a                    49.22489127 
_cell_length_b                    49.2334382248714 
_cell_length_c                    29.176446014726334 
_cell_angle_alpha                 89.99213503011497 
_cell_angle_beta                  89.8237685242837 
_cell_angle_gamma                 89.97968443741634 
loop_ 
_atom_site_label 
_atom_site_type_symbol 
_atom_site_fract_x 
_atom_site_fract_y 
_atom_site_fract_z 
_atom_site_charge 
O1          O  0.68656534  0.44604048  0.60594505    -0.81500
C2          C  0.68391344  0.46724776  0.79605206     0.97800
O3          O  0.69408116  0.48197303  0.76521061    -0.70600
O4          O  0.72661871  0.44829972  0.71989300    -0.74200
Al5        Al  0.70019449  0.47463161  0.70181270     1.49000
C6          C  0.73235444  0.42658371  0.69864347     0.93100
O7          O  0.67076753  0.39399410  0.69745986    -0.80500
O8          O  0.62075416  0.45190872  0.67920830    -0.74000
Al9        Al  0.67869199  0.42243391  0.65533963     1.90100
O10         O  0.63907422  0.41376227  0.73813522    -0.73100
O11         O  0.64248571  0.49050195  0.72936280    -0.72900
O12         O  0.66530979  0.45069744  0.78576505    -0.78600
O13         O  0.67587602  0.50328241  0.68402794    -0.76800
O14         O  0.67437642  0.44930615  0.69565124    -1.12900
O15         O  0.71366947  0.47379664  0.64063378    -0.72100
C16         C  0.70516212  0.46340915  0.60412452     0.98600
C17         C  0.65109592  0.39264290  0.72501073     0.95000
Al18       Al  0.64455501  0.45155079  0.73038730     1.55600
O19         O  0.71624972  0.41671558  0.66927924    -0.76800
C20         C  0.65341429  0.50817834  0.70377654     0.99200
C21         C  0.62174940  0.43732758  0.64366710     0.94000
O22         O  0.64249416  0.42339923  0.63418889    -0.82100
O23         O  0.82598335  0.43044745  0.13105876    -0.81500
C24         C  0.79280727  0.47890267  0.29593510     0.97800
O25         O  0.81734641  0.47473256  0.28482209    -0.70600
O26         O  0.83311401  0.42549439  0.26428864    -0.74200
Al27       Al  0.83398940  0.45878016  0.23135346     1.49000
C28         C  0.83246789  0.40245652  0.24593061     0.93100
O29         O  0.76912914  0.41139848  0.21115904    -0.80500
O30         O  0.77478134  0.47917398  0.13695423    -0.74000
Al31       Al  0.79787471  0.42190695  0.17190243     1.90100
O32         O  0.74713087  0.45033840  0.20579659    -0.73100
O33         O  0.79917238  0.50921221  0.19961211    -0.72900
O34         O  0.77431602  0.47812466  0.26630241    -0.78600
O35         O  0.84013995  0.49268102  0.20382557    -0.76800
O36         O  0.80278697  0.45286163  0.20216529    -1.12900
O37         O  0.85617902  0.44385389  0.18233086    -0.72100
C38         C  0.85007867  0.43633470  0.14196646     0.98600
C39         C  0.74756546  0.42512323  0.21540266     0.95000
Al40       Al  0.77613506  0.47728980  0.20222989     1.55600
O41         O  0.82168403  0.39969671  0.20722567    -0.76800
C42         C  0.82461325  0.51248461  0.19697564     0.99200
C43         C  0.76872862  0.45909722  0.11223778     0.94000
O44         O  0.77286377  0.43546401  0.12724340    -0.82100
O45         O  0.95655153  0.18777202  0.41944102    -0.81500
C46         C  0.97901095  0.18406596  0.23170551     0.97800
O47         O  0.99448040  0.19505613  0.26087553    -0.70600
O48         O  0.96214344  0.22838355  0.30673415    -0.74200
Al49       Al  0.98771637  0.20133735  0.32510754     1.49000
C50         C  0.93995530  0.23404026  0.32658020     0.93100
O51         O  0.90779488  0.17233083  0.32295279    -0.80500
O52         O  0.96758498  0.12288337  0.35167285    -0.74000
Al53       Al  0.93444653  0.17984632  0.36842793     1.90100
O54         O  0.92818115  0.13755506  0.29201075    -0.73100
O55         O  0.00468890  0.14461052  0.29689861    -0.72900
O56         O  0.96357001  0.16470084  0.24285028    -0.78600
O57         O  0.01591492  0.17685188  0.34435168    -0.76800
O58         O  0.96243415  0.17552647  0.33081075    -1.12900
O59         O  0.98610177  0.21410283  0.38670905    -0.72100
C60         C  0.97441128  0.20588262  0.42250899     0.98600
C61         C  0.90692928  0.15110521  0.29897921     0.95000
Al62       Al  0.96578256  0.14506540  0.29838181     1.55600
O63         O  0.92927169  0.21722297  0.35400365    -0.76800
C64         C  0.02133872  0.15445029  0.32516836     0.99200
C65         C  0.95055538  0.12334113  0.38415804     0.94000
O66         O  0.93465852  0.14324786  0.38992899    -0.82100
O67         O  0.92944006  0.32033933  0.89358695    -0.81500
C68         C  0.98446480  0.29091295  0.73198364     0.97800
O69         O  0.97908935  0.31501250  0.74393948    -0.70600
O70         O  0.92826221  0.32800290  0.76092607    -0.74200
Al71       Al  0.96075261  0.33007737  0.79626069     1.49000
C72         C  0.90476854  0.32537778  0.77741658     0.93100
O73         O  0.91655618  0.26200197  0.81366010    -0.80500
O74         O  0.98253736  0.27111287  0.88973783    -0.74000
Al75       Al  0.92430521  0.29148728  0.85272900     1.90100
O76         O  0.95644433  0.24230283  0.81972784    -0.73100
O77         O  0.01222660  0.29721782  0.82726255    -0.72900
O78         O  0.98317140  0.27167250  0.76035303    -0.78600
O79         O  0.99362698  0.33747783  0.82653333    -0.76800
O80         O  0.95565454  0.29826530  0.82428185    -1.12900
O81         O  0.94344701  0.35111099  0.84374518    -0.72100
C82         C  0.93397303  0.34471779  0.88269196     0.98600
C83         C  0.93153383  0.24139657  0.80861556     0.95000
Al84       Al  0.98146186  0.27278715  0.82443374     1.55600
O85         O  0.90160369  0.31337909  0.81505395    -0.76800
C86         C  0.01433807  0.32272866  0.83017904     0.99200
C87         C  0.96228641  0.26511730  0.91434751     0.94000
O88         O  0.93857026  0.26813867  0.89907628    -0.82100
O89         O  0.66343724  0.03969308  0.10247146    -0.81500
C90         C  0.69007517  0.00565381  0.28017337     0.97800
O91         O  0.66602783  0.00856443  0.26579458    -0.70600
O92         O  0.65357066  0.05667199  0.23326140    -0.74200
Al93       Al  0.65195277  0.02121638  0.20788888     1.49000
C94         C  0.65370783  0.07761545  0.20860113     0.93100
O95         O  0.71820386  0.06451342  0.18148919    -0.80500
O96         O  0.71300633  0.99042951  0.12630938    -0.74000
Al97       Al  0.69055900  0.05127459  0.14305943     1.90100
O98         O  0.73949281  0.02530914  0.18775419    -0.73100
O99         O  0.68560475  0.96787139  0.19674517    -0.72900
O100        O  0.70996098  0.00479808  0.25318710    -0.78600
O101        O  0.64555892  0.98595749  0.18657440    -0.76800
O102        O  0.68402735  0.02366591  0.18058879    -1.12900
O103        O  0.63172398  0.03333658  0.15488382    -0.72100
C104        C  0.63872073  0.03737350  0.11350525     0.98600
C105        C  0.73936256  0.05111678  0.19098521     0.95000
Al106      Al  0.70985877  0.99899887  0.19001458     1.55600
O107        O  0.66595627  0.07713275  0.17058972    -0.76800
C108        C  0.66010411  0.96534715  0.19268918     0.99200
C109        C  0.72062087  0.00799251  0.09752252     0.94000
O110        O  0.71640318  0.03291088  0.10472639    -0.82100
O111        O  0.78116063  0.02624143  0.59957156    -0.81500
C112        C  0.80106228  0.99842774  0.78262551     0.97800
O113        O  0.78486388  0.98594090  0.75634462    -0.70600
O114        O  0.74868032  0.01687390  0.71502031    -0.74200
Al115      Al  0.77494321  0.99125030  0.69333994     1.49000
C116        C  0.74303764  0.04021570  0.70002293     0.93100
O117        O  0.80717910  0.07067482  0.69598876    -0.80500
O118        O  0.85047479  0.01018506  0.64537368    -0.74000
Al119      Al  0.79450928  0.04595490  0.65023190     1.90100
O120        O  0.84404175  0.04849732  0.71237445    -0.73100
O121        O  0.83451206  0.97279006  0.70498440    -0.72900
O122        O  0.82092206  0.01197769  0.76701375    -0.78600
O123        O  0.79640757  0.96115541  0.67260031    -0.76800
O124        O  0.80105601  0.01612205  0.68304893    -1.12900
O125        O  0.76005901  0.99229028  0.63290875    -0.72100
C126        C  0.76542354  0.00614342  0.59767067     0.98600
C127        C  0.83120445  0.07056598  0.71072704     0.95000
Al128      Al  0.83444296  0.01118505  0.70567294     1.55600
O129        O  0.75931426  0.05200859  0.67341450    -0.76800
C130        C  0.81996927  0.95527647  0.68582703     0.99200
C131        C  0.84755921  0.02873210  0.61558419     0.94000
O132        O  0.82860987  0.04582998  0.61986343    -0.82100
O133        O  0.53591595  0.14398149  0.90374775    -0.81500
C134        C  0.49364320  0.18427216  0.73640721     0.97800
O135        O  0.50486844  0.16172120  0.74302657    -0.70600
O136        O  0.55158032  0.14542729  0.77170531    -0.74200
Al137      Al  0.51568996  0.14258725  0.79620736     1.49000
C138        C  0.57273802  0.14366672  0.79535655     0.93100
O139        O  0.55987091  0.20472195  0.83561809    -0.80500
O140        O  0.49111817  0.20206828  0.89869339    -0.74000
Al141      Al  0.54741528  0.17437910  0.86907807     1.90100
O142        O  0.52027861  0.22561560  0.82548943    -0.73100
O143        O  0.46341591  0.17259479  0.84229665    -0.72900
O144        O  0.48794699  0.19910650  0.76997178    -0.78600
O145        O  0.47968651  0.13492658  0.81344309    -0.76800
O146        O  0.51836372  0.17155759  0.83284300    -1.12900
O147        O  0.52623566  0.11792181  0.84405074    -0.72100
C148        C  0.53117905  0.12074582  0.88650782     0.98600
C149        C  0.54622879  0.22532190  0.82296480     0.95000
Al150      Al  0.49296259  0.19749764  0.83391868     1.55600
O151        O  0.57195057  0.15169042  0.83605710    -0.76800
C152        C  0.46075055  0.14764467  0.83299535     0.99200
C153        C  0.51043985  0.20628341  0.92542904     0.94000
O154        O  0.53359597  0.19798263  0.91484273    -0.82100
O155        O  0.52800190  0.27618975  0.41822918    -0.81500
C156        C  0.50143915  0.29779882  0.23560257     0.97800
O157        O  0.48728649  0.28319972  0.26221019    -0.70600
O158        O  0.51965989  0.24706385  0.30042511    -0.74200
Al159      Al  0.49355406  0.27222169  0.32451264     1.49000
C160        C  0.54341122  0.24148254  0.31392462     0.93100
O161        O  0.57351439  0.30445839  0.32561762    -0.80500
O162        O  0.51216752  0.34703749  0.37221866    -0.74000
Al163      Al  0.54791700  0.29090665  0.36922680     1.90100
O164        O  0.55143728  0.34074618  0.30622457    -0.73100
O165        O  0.47502808  0.33124158  0.31250853    -0.72900
O166        O  0.51564914  0.31722333  0.25093906    -0.78600
O167        O  0.46413105  0.29385275  0.34823844    -0.76800
O168        O  0.51855585  0.29790443  0.33551023    -1.12900
O169        O  0.49461267  0.25565693  0.38344052    -0.72100
C170        C  0.50817492  0.26020035  0.41904395     0.98600
C171        C  0.57354026  0.32802250  0.30909179     0.95000
Al172      Al  0.51393205  0.33113920  0.31225410     1.55600
O173        O  0.55447858  0.25637659  0.34348973    -0.76800
C174        C  0.45820118  0.31756317  0.33545506     0.99200
C175        C  0.52893737  0.34316865  0.40450747     0.94000
O176        O  0.54641664  0.32437866  0.40181985    -0.82100
O177        O  0.15816173  0.93962910  0.43628250    -0.81500
C178        C  0.18723646  0.98185159  0.26249831     0.97800
O179        O  0.16349082  0.97995045  0.27868127    -0.70600
O180        O  0.14537065  0.93132774  0.30486031    -0.74200
Al181      Al  0.14909907  0.96575774  0.33510738     1.49000
C182        C  0.14598260  0.90876757  0.32541269     0.93100
O183        O  0.21260601  0.91325903  0.35542259    -0.80500
O184        O  0.21680403  0.98434517  0.41555751    -0.74000
Al185      Al  0.18500046  0.92795887  0.39398918     1.90100
O186        O  0.23597562  0.95080729  0.34696868    -0.73100
O187        O  0.18986846  0.01355689  0.35384699    -0.72900
O188        O  0.20747066  0.97798762  0.28783310    -0.78600
O189        O  0.14761625  0.00041943  0.36189376    -0.76800
O190        O  0.18135083  0.95788672  0.36008377    -1.12900
O191        O  0.12806186  0.95397811  0.38660899    -0.72100
C192        C  0.13419394  0.94686751  0.42687612     0.98600
C193        C  0.23453888  0.92514658  0.34494217     0.95000
Al194      Al  0.20993830  0.97978766  0.35175368     1.55600
O195        O  0.15934082  0.90639215  0.36189284    -0.76800
C196        C  0.16517848  0.01890742  0.36165530     0.99200
C197        C  0.22099865  0.96502203  0.44299942     0.94000
O198        O  0.21133370  0.94190846  0.43476080    -0.82100
O199        O  0.28437469  0.94672810  0.95284447    -0.81500
C200        C  0.29601441  0.96663108  0.76349203     0.97800
O201        O  0.28223794  0.98021530  0.79178439    -0.70600
O202        O  0.25104341  0.94465482  0.83354699    -0.74200
Al203      Al  0.27343060  0.97354616  0.85433027     1.49000
C204        C  0.24630750  0.92253967  0.85398731     0.93100
O205        O  0.30939908  0.89653458  0.86447843    -0.80500
O206        O  0.35259737  0.96047776  0.89280467    -0.74000
Al207      Al  0.29717464  0.92393561  0.90553262     1.90100
O208        O  0.34270323  0.91865773  0.83220603    -0.73100
O209        O  0.33017298  0.99471669  0.83411645    -0.72900
O210        O  0.31572189  0.95224501  0.77734036    -0.78600
O211        O  0.29352397  0.00475576  0.87395562    -0.76800
O212        O  0.30112219  0.95105543  0.86566009    -1.12900
O213        O  0.25708468  0.97231557  0.91349435    -0.72100
C214        C  0.26460329  0.96280189  0.95131833     0.98600
C215        C  0.33082919  0.89658724  0.84097370     0.95000
Al216      Al  0.33264118  0.95605998  0.83649725     1.55600
O217        O  0.26124113  0.91449526  0.88643449    -0.76800
C218        C  0.31585186  0.01168905  0.85584126     0.99200
C219        C  0.35100273  0.94578914  0.92837891     0.94000
O220        O  0.33215415  0.92847932  0.93248961    -0.82100
O221        O  0.44226456  0.64950252  0.64735532    -0.81500
C222        C  0.48460873  0.68591725  0.81539425     0.97800
O223        O  0.48187545  0.66127534  0.80401867    -0.70600
O224        O  0.43343595  0.64313892  0.78093801    -0.74200
Al225      Al  0.46768348  0.64382121  0.75010306     1.49000
C226        C  0.41080934  0.64244033  0.76103505     0.93100
O227        O  0.41650410  0.70500736  0.72465268    -0.80500
O228        O  0.48682591  0.70473900  0.65733072    -0.74000
Al229      Al  0.43036008  0.67708195  0.68697324     1.90100
O230        O  0.45389268  0.72968096  0.72366494    -0.73100
O231        O  0.51639646  0.68203536  0.72271205    -0.72900
O232        O  0.48182156  0.70445213  0.78615760    -0.78600
O233        O  0.50250158  0.63976476  0.72473452    -0.76800
O234        O  0.46056153  0.67449776  0.72005812    -1.12900
O235        O  0.45539468  0.62060069  0.70073622    -0.72100
C236        C  0.44922246  0.62585428  0.65940186     0.98600
C237        C  0.42848486  0.72738221  0.73086411     0.95000
Al238      Al  0.48293567  0.70281186  0.72224053     1.55600
O239        O  0.40869246  0.65194555  0.72117318    -0.76800
C240        C  0.52129058  0.65684990  0.72099072     0.99200
C241        C  0.46720173  0.70943539  0.63089037     0.94000
O242        O  0.44351747  0.70296731  0.64319933    -0.82100
O243        O  0.45657891  0.79027579  0.12824120    -0.81500
C244        C  0.48207862  0.79495103  0.31599108     0.97800
O245        O  0.49570172  0.78321758  0.28513948    -0.70600
O246        O  0.45949095  0.75152108  0.24489779    -0.74200
Al247      Al  0.48663058  0.77585895  0.22255723     1.49000
C248        C  0.43727447  0.74610486  0.22520602     0.93100
O249        O  0.40831480  0.80771601  0.22398010    -0.80500
O250        O  0.46840848  0.85593633  0.19485466    -0.74000
Al251      Al  0.43462304  0.79903005  0.17904422     1.90100
O252        O  0.42954350  0.84133638  0.25744332    -0.73100
O253        O  0.50669560  0.83269875  0.24542575    -0.72900
O254        O  0.46632569  0.81415900  0.30514577    -0.78600
O255        O  0.51588732  0.79785439  0.20070804    -0.76800
O256        O  0.46274221  0.80289183  0.21643546    -1.12900
O257        O  0.48340971  0.76145597  0.16187401    -0.72100
C258        C  0.47289400  0.77075970  0.12586265     0.98600
C259        C  0.40790882  0.82870595  0.24845594     0.95000
Al260      Al  0.46741548  0.83343636  0.24832567     1.55600
O261        O  0.42798718  0.76152802  0.19422440    -0.76800
C262        C  0.52293811  0.81990674  0.21940893     0.99200
C263        C  0.45153303  0.85531601  0.16227788     0.94000
O264        O  0.43582122  0.83530175  0.15690746    -0.82100
O265        O  0.02252736  0.69918374  0.13588336    -0.81500
C266        C  0.00072987  0.68216609  0.32319469     0.97800
O267        O  0.98681521  0.69649840  0.29623163    -0.70600
O268        O  0.01892059  0.73175814  0.25587116    -0.74200
Al269      Al  0.99239759  0.70653626  0.23392136     1.49000
C270        C  0.04097141  0.73860990  0.23682236     0.93100
O271        O  0.07220157  0.67692043  0.22805260    -0.80500
O272        O  0.01260025  0.62982286  0.18936796    -0.74000
Al273      Al  0.04523053  0.68777647  0.18458068     1.90100
O274        O  0.05179483  0.64040967  0.25240549    -0.73100
O275        O  0.97566484  0.64734811  0.24826962    -0.72900
O276        O  0.01573645  0.66327959  0.30799951    -0.78600
O277        O  0.96257646  0.68437767  0.21356455    -0.76800
O278        O  0.01729249  0.68086142  0.22179346    -1.12900
O279        O  0.99253486  0.72271330  0.17471618    -0.72100
C280        C  0.00359186  0.71634840  0.13732581     0.98600
C281        C  0.07318652  0.65403777  0.24744820     0.95000
Al282      Al  0.01412772  0.64813111  0.24748841     1.55600
O283        O  0.05088195  0.72419028  0.20512653    -0.76800
C284        C  0.95736687  0.66085847  0.22860572     0.99200
C285        C  0.02989951  0.63245819  0.15740357     0.94000
O286        O  0.04538398  0.65290108  0.15627547    -0.82100
O287        O  0.04195776  0.81963245  0.64917212    -0.81500
C288        C  0.00167029  0.79160235  0.82292615     0.97800
O289        O  0.00340714  0.81567314  0.80803259    -0.70600
O290        O  0.05303469  0.82789762  0.78160527    -0.74200
Al291      Al  0.01888980  0.82980306  0.75196024     1.49000
C292        C  0.07523967  0.82521531  0.76062774     0.93100
O293        O  0.06297916  0.76287950  0.72669865    -0.80500
O294        O  0.99063407  0.76828163  0.66890892    -0.74000
Al295      Al  0.05114620  0.79141339  0.68934271     1.90100
O296        O  0.02412726  0.74148436  0.73151659    -0.73100
O297        O  0.96680764  0.79565243  0.73651113    -0.72900
O298        O  0.00274659  0.77154677  0.79632925    -0.78600
O299        O  0.98479229  0.83590550  0.72594794    -0.76800
O300        O  0.02256233  0.79763246  0.72471839    -1.12900
O301        O  0.03381378  0.85067490  0.70144078    -0.72100
C302        C  0.04024319  0.84419479  0.66077487     0.98600
C303        C  0.04986688  0.74152380  0.73498713     0.95000
Al304      Al  0.99799300  0.77144349  0.73270806     1.55600
O305        O  0.07614559  0.81388831  0.72195775    -0.76800
C306        C  0.96423842  0.82089563  0.72908661     0.99200
C307        C  0.00854862  0.76326930  0.63913759     0.94000
O308        O  0.03331977  0.76756362  0.64731945    -0.82100
O309        O  0.32207365  0.54759463  0.43345855    -0.81500
C310        C  0.29296536  0.50606314  0.26196303     0.97800
O311        O  0.31718899  0.50870225  0.27524177    -0.70600
O312        O  0.33018327  0.55767753  0.30067141    -0.74200
Al313      Al  0.33187232  0.52353650  0.33062049     1.49000
C314        C  0.32913897  0.57998068  0.32149778     0.93100
O315        O  0.26572834  0.56814225  0.35386821    -0.80500
O316        O  0.27098310  0.49702783  0.41841933    -0.74000
Al317      Al  0.29397029  0.55682211  0.39268781     1.90100
O318        O  0.24426014  0.52900597  0.35259920    -0.73100
O319        O  0.29829034  0.47087125  0.35103745    -0.72900
O320        O  0.27345692  0.50553502  0.28975028    -0.78600
O321        O  0.33861719  0.48921257  0.35591771    -0.76800
O322        O  0.30005636  0.52740828  0.35891218    -1.12900
O323        O  0.35269536  0.53783758  0.38060438    -0.72100
C324        C  0.34653920  0.54438413  0.42130693     0.98600
C325        C  0.24447497  0.55460898  0.34612422     0.95000
Al326      Al  0.27397509  0.50250580  0.35357240     1.55600
O327        O  0.31755728  0.58141133  0.35999497    -0.76800
C328        C  0.32390299  0.46844029  0.35421203     0.99200
C329        C  0.26421785  0.51591056  0.44543931     0.94000
O330        O  0.26883346  0.54035982  0.43503872    -0.82100
O331        O  0.19748924  0.52454285  0.94807012    -0.81500
C332        C  0.18097236  0.50261462  0.76128818     0.97800
O333        O  0.19610908  0.48892382  0.78748247    -0.70600
O334        O  0.23210627  0.51951679  0.83039282    -0.74200
Al335      Al  0.20558025  0.49358365  0.85076088     1.49000
C336        C  0.23907235  0.54119531  0.85033367     0.93100
O337        O  0.17721846  0.57340294  0.85396090    -0.80500
O338        O  0.12894467  0.51516010  0.89611463    -0.74000
Al339      Al  0.18696904  0.54696491  0.89874701     1.90100
O340        O  0.14013628  0.55343213  0.83056593    -0.73100
O341        O  0.14511012  0.47707268  0.83915253    -0.72900
O342        O  0.16138559  0.51633513  0.77705382    -0.78600
O343        O  0.18322620  0.46388139  0.87035110    -0.76800
O344        O  0.17990722  0.51871913  0.86241259    -1.12900
O345        O  0.22062362  0.49338347  0.91095816    -0.72100
C346        C  0.21431105  0.50527918  0.94772059     0.98600
C347        C  0.15459005  0.57441071  0.83392941     0.95000
Al348      Al  0.14685757  0.51563556  0.83765740     1.55600
O349        O  0.22340065  0.55177622  0.87942830    -0.76800
C350        C  0.15907176  0.45910096  0.85871700     0.99200
C351        C  0.13179822  0.53269055  0.92743082     0.94000
O352        O  0.15200012  0.54843527  0.92676658    -0.82100
C353        C  0.20881580  0.51396123  0.53672585    -0.05200
C354        C  0.22353412  0.50539348  0.57555254     0.09000
C355        C  0.25119912  0.49821513  0.57069944    -0.02600
C356        C  0.26431727  0.50057678  0.52767058    -0.00800
C357        C  0.24982788  0.51004462  0.48919712    -0.04500
C358        C  0.22193322  0.51644091  0.49376699     0.02600
C359        C  0.21027388  0.50515396  0.62202724     0.09400
C360        C  0.26623542  0.48886765  0.61032389     0.35300
C361        C  0.20672949  0.52585660  0.45431039     0.38700
C362        C  0.19761996  0.48139902  0.63882529    -0.04800
C363        C  0.18657912  0.48086197  0.68364781     0.02300
C364        C  0.18808037  0.50410850  0.71185369    -0.04400
C365        C  0.19969811  0.52821831  0.69432283    -0.00700
C366        C  0.21092378  0.52867130  0.64972818    -0.03200
C367        C  0.19658786  0.45735664  0.61022758     0.36000
C368        C  0.20160271  0.55212698  0.72327688     0.39700
C369        C  0.17346370  0.45649421  0.70065915     0.38800
C370        C  0.22419340  0.55303492  0.63297569     0.35700
C371        C  0.18020203  0.52050088  0.54124514     0.36400
C372        C  0.29302118  0.49443555  0.52332333     0.39600
N373        N  0.16277844  0.43709360  0.71398529    -0.38400
N374        N  0.19589215  0.43821257  0.58725413    -0.40000
N375        N  0.20321311  0.57108713  0.74655380    -0.37800
N376        N  0.23493019  0.57243186  0.61975342    -0.40100
N377        N  0.27812454  0.48134951  0.64204332    -0.39900
N378        N  0.31595132  0.48967659  0.51967107    -0.37500
N379        N  0.19443991  0.53336257  0.42301427    -0.38600
N380        N  0.15734979  0.52560954  0.54495193    -0.40300
C381        C  0.26466329  0.52531074  0.14681056    -0.05200
C382        C  0.26652400  0.50038008  0.12313924     0.09000
C383        C  0.27942950  0.47790445  0.14380143    -0.02600
C384        C  0.28943893  0.48003283  0.18885567    -0.00800
C385        C  0.28674061  0.50468940  0.21287767    -0.04500
C386        C  0.27503270  0.52753316  0.19148782     0.02600
C387        C  0.25368668  0.49762408  0.07721004     0.09400
C388        C  0.28145967  0.45238134  0.11927466     0.35300
C389        C  0.27344008  0.55323431  0.21581208     0.38700
C390        C  0.26943337  0.50065019  0.03710493    -0.04800
C391        C  0.25675693  0.50054419  0.99388075     0.02300
C392        C  0.22819246  0.49817206  0.99090381    -0.04400
C393        C  0.21279712  0.49297204  0.03078057    -0.00700
C394        C  0.22544644  0.49315776  0.07397237    -0.03200
C395        C  0.29843382  0.50541535  0.04057507     0.36000
C396        C  0.18405161  0.48691404  0.02716722     0.39700
C397        C  0.27305386  0.50389401  0.95274248     0.38800
C398        C  0.20928923  0.49005332  0.11531232     0.35700
C399        C  0.25119158  0.54834868  0.12574554     0.36400
C400        C  0.30144346  0.45664788  0.21126761     0.39600
N401        N  0.28615908  0.50628706  0.91999008    -0.38400
N402        N  0.32153620  0.50940230  0.04339445    -0.40000
N403        N  0.16117004  0.48182415  0.02430369    -0.37800
N404        N  0.19648092  0.48790543  0.14844117    -0.40100
N405        N  0.28305986  0.43201859  0.09964720    -0.39900
N406        N  0.31095794  0.43802675  0.22935161    -0.37500
N407        N  0.27238244  0.57369852  0.23525919    -0.38600
N408        N  0.24022210  0.56662566  0.10906188    -0.40300
C409        C  0.10767749  0.68988207  0.74403292    -0.05200
C410        C  0.09685517  0.67089012  0.77511530     0.09000
C411        C  0.07022640  0.67438656  0.79215483    -0.02600
C412        C  0.05460622  0.69718217  0.77893166    -0.00800
C413        C  0.06540387  0.71647502  0.74771619    -0.04500
C414        C  0.09201654  0.71228477  0.72978495     0.02600
C415        C  0.11345833  0.64679361  0.78904438     0.09400
C416        C  0.05897895  0.65439021  0.82341542     0.35300
C417        C  0.10346969  0.73058642  0.69578763     0.38700
C418        C  0.12761214  0.64682203  0.83102279    -0.04800
C419        C  0.14255241  0.62371774  0.84469802     0.02300
C420        C  0.14353087  0.60046488  0.81619266    -0.04400
C421        C  0.13044937  0.60110847  0.77306067    -0.00700
C422        C  0.11526169  0.62406207  0.75982071    -0.03200
C423        C  0.12620328  0.67046791  0.86058807     0.36000
C424        C  0.13262413  0.57819459  0.74197896     0.39700
C425        C  0.15558975  0.62344679  0.88922662     0.38800
C426        C  0.10083394  0.62407291  0.71652735     0.35700
C427        C  0.13514634  0.68631886  0.72675089     0.36400
C428        C  0.02783972  0.70102495  0.79881612     0.39600
N429        N  0.16595709  0.62324248  0.92477667    -0.38400
N430        N  0.12497352  0.68934019  0.88414682    -0.40000
N431        N  0.13425639  0.56009577  0.71681330    -0.37800
N432        N  0.08925019  0.62408561  0.68207377    -0.40100
N433        N  0.05012700  0.63833803  0.84829048    -0.39900
N434        N  0.00649973  0.70398311  0.81482441    -0.37500
N435        N  0.11278826  0.74520132  0.66893376    -0.38600
N436        N  0.15704249  0.68346120  0.71301961    -0.40300
C437        C  0.17843822  0.57227801  0.28330179    -0.05200
C438        C  0.17319541  0.59866494  0.30001206     0.09000
C439        C  0.19101133  0.61040436  0.33203182    -0.02600
C440        C  0.21381876  0.59581895  0.34777412    -0.00800
C441        C  0.21954289  0.56939809  0.33062048    -0.04500
C442        C  0.20166872  0.55780336  0.29801329     0.02600
C443        C  0.14780617  0.61348248  0.28659874     0.09400
C444        C  0.18545217  0.63745286  0.34950460     0.35300
C445        C  0.20734916  0.53129948  0.27851177     0.38700
C446        C  0.12424411  0.61075216  0.31369156    -0.04800
C447        C  0.10029113  0.62488213  0.30211731     0.02300
C448        C  0.09952772  0.64185968  0.26275738    -0.04400
C449        C  0.12336989  0.64454952  0.23564432    -0.00700
C450        C  0.14741473  0.63058011  0.24782159    -0.03200
C451        C  0.12469696  0.59303341  0.35345647     0.36000
C452        C  0.12294148  0.66033914  0.19366610     0.39700
C453        C  0.07648347  0.62174002  0.33111436     0.38800
C454        C  0.17173746  0.63342206  0.22004933     0.35700
C455        C  0.15956623  0.55989238  0.25145760     0.36400
C456        C  0.23065828  0.60785340  0.38312788     0.39600
N457        N  0.05753669  0.61899501  0.35424155    -0.38400
N458        N  0.12522740  0.57882032  0.38503472    -0.40000
N459        N  0.12263927  0.67284601  0.16007524    -0.37800
N460        N  0.19113624  0.63569455  0.19786916    -0.40100
N461        N  0.18094648  0.65901021  0.36339240    -0.39900
N462        N  0.24403676  0.61753068  0.41129474    -0.37500
N463        N  0.21174827  0.51017362  0.26274768    -0.38600
N464        N  0.14437503  0.55000668  0.22628156    -0.40300
C465        C  0.06365744  0.54223609  0.98909708    -0.05200
C466        C  0.07233174  0.55449238  0.03021826     0.09000
C467        C  0.10021335  0.55490417  0.04087549    -0.02600
C468        C  0.11954505  0.54584527  0.00865684    -0.00800
C469        C  0.11118947  0.53619912  0.96497947    -0.04500
C470        C  0.08297610  0.53294646  0.95658563     0.02600
C471        C  0.05359028  0.57198819  0.05806417     0.09400
C472        C  0.10914161  0.56667961  0.08397579     0.35300
C473        C  0.07359350  0.52166325  0.91354932     0.38700
C474        C  0.04473622  0.56375430  0.10195701    -0.04800
C475        C  0.03472921  0.58317594  0.13360634     0.02300
C476        C  0.03376315  0.61107271  0.12150610    -0.04400
C477        C  0.04070426  0.61873861  0.07601212    -0.00700
C478        C  0.05012131  0.59921638  0.04444392    -0.03200
C479        C  0.04788455  0.53560633  0.11554651     0.36000
C480        C  0.04029265  0.64700911  0.06195673     0.39700
C481        C  0.02826218  0.57469992  0.17998083     0.38800
C482        C  0.05865684  0.60759792  0.99884271     0.35700
C483        C  0.03485456  0.54057426  0.97932408     0.36400
C484        C  0.14809217  0.54762922  0.02060641     0.39600
N485        N  0.02328623  0.56795569  0.21707079    -0.38400
N486        N  0.05049932  0.51315804  0.12645155    -0.40000
N487        N  0.04080505  0.66939538  0.04989305    -0.37800
N488        N  0.06557594  0.61414964  0.96254272    -0.40100
N489        N  0.11610059  0.57615840  0.11828666    -0.39900
N490        N  0.17066363  0.54959039  0.03108217    -0.37500
N491        N  0.06609833  0.51250728  0.87931202    -0.38600
N492        N  0.01186600  0.53921498  0.97146009    -0.40300
C493        C  0.99331805  0.71014385  0.54906991    -0.05200
C494        C  0.99798649  0.72499077  0.50839173     0.09000
C495        C  0.00274085  0.75325418  0.51085516    -0.02600
C496        C  0.00453438  0.76623698  0.55383129    -0.00800
C497        C  0.00122703  0.75109170  0.59453437    -0.04500
C498        C  0.99459949  0.72325714  0.59204624     0.02600
C499        C  0.99859702  0.71092685  0.46282131     0.09400
C500        C  0.00634349  0.76884504  0.46906633     0.35300
C501        C  0.99013546  0.70794030  0.63386991     0.38700
C502        C  0.97417316  0.70481049  0.43995531    -0.04800
C503        C  0.97479611  0.69424705  0.39498007     0.02300
C504        C  0.99996026  0.68912887  0.37281845    -0.04400
C505        C  0.02441998  0.69463613  0.39634087    -0.00700
C506        C  0.02370449  0.70533469  0.44123868    -0.03200
C507        C  0.94836340  0.71020559  0.46233060     0.36000
C508        C  0.05030186  0.69176034  0.37286954     0.39700
C509        C  0.94940871  0.68970486  0.37103636     0.38800
C510        C  0.04885043  0.71148199  0.46484777     0.35700
C511        C  0.98825986  0.68118252  0.54670770     0.36400
C512        C  0.00975459  0.79520738  0.55613348     0.39600
N513        N  0.92903554  0.68653954  0.35208035    -0.38400
N514        N  0.92781079  0.71442117  0.48034363    -0.40000
N515        N  0.07086854  0.68978620  0.35382901    -0.37800
N516        N  0.06886837  0.71648174  0.48374470    -0.40100
N517        N  0.00925405  0.78123950  0.43570253    -0.39900
N518        N  0.01371485  0.81836258  0.55750794    -0.37500
N519        N  0.98646892  0.69588238  0.66737335    -0.38600
N520        N  0.98429742  0.65804622  0.54477208    -0.40300
C521        C  0.98192951  0.72757369  0.01429812    -0.05200
C522        C  0.98723350  0.75558637  0.00929553     0.09000
C523        C  0.99379243  0.77133256  0.04797806    -0.02600
C524        C  0.99798586  0.75861902  0.09061175    -0.00800
C525        C  0.99509561  0.73015034  0.09473798    -0.04500
C526        C  0.98575138  0.71486810  0.05706132     0.02600
C527        C  0.99111243  0.76721447  0.96256723     0.09400
C528        C  0.99761423  0.80041889  0.04322173     0.35300
C529        C  0.98032315  0.68607427  0.06222010     0.38700
C530        C  0.97032370  0.78202889  0.94067432    -0.04800
C531        C  0.97424698  0.79159997  0.89549920     0.02300
C532        C  0.99888729  0.78617668  0.87236768    -0.04400
C533        C  0.02003191  0.77236967  0.89507143    -0.00700
C534        C  0.01616690  0.76293849  0.94005305    -0.03200
C535        C  0.94475494  0.78668475  0.96416028     0.36000
C536        C  0.04575919  0.76770691  0.87188855     0.39700
C537        C  0.95258212  0.80589880  0.87210357     0.38800
C538        C  0.03778811  0.74826397  0.96305390     0.35700
C539        C  0.97372497  0.71170642  0.97483502     0.36400
C540        C  0.00729829  0.77468147  0.12909059     0.39600
N541        N  0.93527542  0.81727404  0.85341190    -0.38400
N542        N  0.92433461  0.79039354  0.98290602    -0.40000
N543        N  0.06626322  0.76405729  0.85338330    -0.37800
N544        N  0.05485038  0.73646287  0.98163578    -0.40100
N545        N  0.00049905  0.82363926  0.03944096    -0.39900
N546        N  0.01490539  0.78787912  0.15920996    -0.37500
N547        N  0.97592347  0.66311379  0.06641873    -0.38600
N548        N  0.96718299  0.69910388  0.94326720    -0.40300
C549        C  0.39975886  0.69285476  0.29646924    -0.05200
C550        C  0.39042013  0.67493920  0.26218733     0.09000
C551        C  0.39711249  0.68001076  0.21590687    -0.02600
C552        C  0.41301065  0.70284752  0.20396299    -0.00800
C553        C  0.42172720  0.72126885  0.23812357    -0.04500
C554        C  0.41485545  0.71622083  0.28444109     0.02600
C555        C  0.37412110  0.65029206  0.27509934     0.09400
C556        C  0.38770640  0.66156985  0.18059816     0.35300
C557        C  0.42209212  0.73578782  0.31945008     0.38700
C558        C  0.34596639  0.65241902  0.28402988    -0.04800
C559        C  0.33090373  0.62929450  0.29766150     0.02300
C560        C  0.34399111  0.60394600  0.30298541    -0.04400
C561        C  0.37218663  0.60188113  0.29377634    -0.00700
C562        C  0.38708019  0.62489378  0.27960622    -0.03200
C563        C  0.33263559  0.67854963  0.27967116     0.36000
C564        C  0.38636694  0.57641641  0.30124818     0.39700
C565        C  0.30186239  0.63147237  0.30528515     0.38800
C566        C  0.41601357  0.62263011  0.27078665     0.35700
C567        C  0.39400033  0.68693778  0.34420665     0.36400
C568        C  0.42118336  0.70680387  0.15662332     0.39600
N569        N  0.27865480  0.63323235  0.31101478    -0.38400
N570        N  0.32213178  0.69948848  0.27636803    -0.40000
N571        N  0.39784969  0.55622718  0.30736996    -0.37800
N572        N  0.43908696  0.62081386  0.26371318    -0.40100
N573        N  0.38018479  0.64683447  0.15246715    -0.39900
N574        N  0.42783675  0.70973015  0.11887478    -0.37500
N575        N  0.42756471  0.75167863  0.34712069    -0.38600
N576        N  0.38940483  0.68183316  0.38216142    -0.40300
C577        C  0.30297114  0.58495752  0.86619808    -0.05200
C578        C  0.31506079  0.58348780  0.82255000     0.09000
C579        C  0.30345375  0.56669442  0.78870860    -0.02600
C580        C  0.27927942  0.55208747  0.79785616    -0.00800
C581        C  0.26598957  0.55468405  0.84090959    -0.04500
C582        C  0.27862294  0.57079307  0.87547980     0.02600
C583        C  0.33986682  0.60002806  0.81170847     0.09400
C584        C  0.31653342  0.56458849  0.74420319     0.35300
C585        C  0.26731167  0.57236481  0.92145603     0.38700
C586        C  0.36602699  0.58967666  0.82063680    -0.04800
C587        C  0.38936112  0.60432208  0.80684572     0.02300
C588        C  0.38665537  0.62924289  0.78286763    -0.04400
C589        C  0.36029400  0.64018428  0.77619423    -0.00700
C590        C  0.33710450  0.62577306  0.79111596    -0.03200
C591        C  0.36883680  0.56355614  0.84311758     0.36000
C592        C  0.35681193  0.66632521  0.75396401     0.39700
C593        C  0.41600468  0.59282573  0.81535365     0.38800
C594        C  0.31023244  0.63732908  0.78508417     0.35700
C595        C  0.31578692  0.60108126  0.90173006     0.36400
C596        C  0.26837275  0.53455389  0.76251799     0.39600
N597        N  0.43720900  0.58350404  0.82209225    -0.38400
N598        N  0.37102290  0.54271063  0.86106318    -0.40000
N599        N  0.35386309  0.68709687  0.73606913    -0.37800
N600        N  0.28878391  0.64657278  0.78062015    -0.40100
N601        N  0.32709769  0.56301928  0.70881158    -0.39900
N602        N  0.26017833  0.52032288  0.73419733    -0.37500
N603        N  0.25837482  0.57365815  0.95813978    -0.38600
N604        N  0.32610723  0.61380682  0.93011322    -0.40300
C605        C  0.44841723  0.59274628  0.54293724    -0.05200
C606        C  0.43020603  0.57136610  0.55183087     0.09000
C607        C  0.42507103  0.56328834  0.59732188    -0.02600
C608        C  0.43424631  0.57951653  0.63386823    -0.00800
C609        C  0.44818634  0.60402838  0.62448379    -0.04500
C610        C  0.45701199  0.60949393  0.57916268     0.02600
C611        C  0.40988260  0.56427183  0.51626308     0.09400
C612        C  0.40767493  0.54005779  0.60607964     0.35300
C613        C  0.47325167  0.63338549  0.56924774     0.38700
C614        C  0.41226625  0.54062464  0.48941925    -0.04800
C615        C  0.39130381  0.53360544  0.45872122     0.02300
C616        C  0.36836256  0.55073832  0.45414946    -0.04400
C617        C  0.36679395  0.57509622  0.47962756    -0.00700
C618        C  0.38717366  0.58150360  0.51120459    -0.03200
C619        C  0.43629066  0.52376824  0.49325545     0.36000
C620        C  0.34487419  0.59435607  0.47208326     0.39700
C621        C  0.39305229  0.50849420  0.43284828     0.38800
C622        C  0.38469548  0.60591739  0.53892685     0.35700
C623        C  0.45593467  0.59901054  0.49600387     0.36400
C624        C  0.42663542  0.57236402  0.68033106     0.39600
N625        N  0.39442815  0.48843360  0.41228362    -0.38400
N626        N  0.45556546  0.51040711  0.49599145    -0.40000
N627        N  0.32756630  0.60984930  0.46599908    -0.37800
N628        N  0.38273023  0.62528304  0.56116122    -0.40100
N629        N  0.39370665  0.52157819  0.61286126    -0.39900
N630        N  0.42041829  0.56629535  0.71719413    -0.37500
N631        N  0.48594021  0.65256864  0.56103868    -0.38600
N632        N  0.46200523  0.60386436  0.45853701    -0.40300
C633        C  0.47402272  0.79166133  0.44654670    -0.05200
C634        C  0.48129264  0.76447246  0.45545121     0.09000
C635        C  0.49173325  0.74826829  0.41979652    -0.02600
C636        C  0.49251683  0.75818258  0.37454084    -0.00800
C637        C  0.48417156  0.78528661  0.36468851    -0.04500
C638        C  0.47644562  0.80235306  0.40174405     0.02600
C639        C  0.47687162  0.75198159  0.50168348     0.09400
C640        C  0.50114863  0.72092638  0.42980469     0.35300
C641        C  0.47180235  0.83112819  0.39442552     0.38700
C642        C  0.45559784  0.73316603  0.50782249    -0.04800
C643        C  0.45321322  0.71846464  0.54904008     0.02300
C644        C  0.47131465  0.72346687  0.58588543    -0.04400
C645        C  0.49226041  0.74300727  0.57992564    -0.00700
C646        C  0.49524411  0.75679232  0.53771653    -0.03200
C647        C  0.43621357  0.72867363  0.47121883     0.36000
C648        C  0.51046613  0.74963769  0.61728429     0.39700
C649        C  0.43266978  0.69738567  0.55225222     0.38800
C650        C  0.51751627  0.77567003  0.53095870     0.35700
C651        C  0.46337242  0.80842510  0.48330700     0.36400
C652        C  0.50085902  0.73959497  0.33852260     0.39600
N653        N  0.41633116  0.68053641  0.55443742    -0.38400
N654        N  0.42064722  0.72503185  0.44224995    -0.40000
N655        N  0.52500740  0.75502194  0.64702482    -0.37800
N656        N  0.53528407  0.79071570  0.52543406    -0.40100
N657        N  0.50866760  0.69919526  0.43801363    -0.39900
N658        N  0.50751148  0.72448185  0.31024563    -0.37500
N659        N  0.46841027  0.85413947  0.38864797    -0.38600
N660        N  0.45475798  0.82180324  0.51255023    -0.40300
C661        C  0.48208613  0.68942181  0.94594539    -0.05200
C662        C  0.49303280  0.71551584  0.95324489     0.09000
C663        C  0.50531493  0.72960967  0.91675665    -0.02600
C664        C  0.50473340  0.71865355  0.87226363    -0.00800
C665        C  0.49079142  0.69389985  0.86360138    -0.04500
C666        C  0.48091176  0.67855665  0.90125091     0.02600
C667        C  0.48833633  0.72973056  0.99768350     0.09400
C668        C  0.51722703  0.75617140  0.92465667     0.35300
C669        C  0.46831200  0.65226315  0.89435988     0.38700
C670        C  0.50941096  0.73264205  0.02985405    -0.04800
C671        C  0.50470317  0.74676076  0.07119308     0.02300
C672        C  0.47868149  0.75777348  0.08079556    -0.04400
C673        C  0.45774370  0.75519320  0.04772313    -0.00700
C674        C  0.46267789  0.74135271  0.00636695    -0.03200
C675        C  0.53597759  0.72122493  0.02014005     0.36000
C676        C  0.43069670  0.76585932  0.05633245     0.39700
C677        C  0.52696452  0.75059607  0.10303361     0.38800
C678        C  0.44129652  0.73906863  0.97233507     0.35700
C679        C  0.47071772  0.67445432  0.98431766     0.36400
C680        C  0.51838282  0.73323209  0.83554398     0.39600
N681        N  0.54473870  0.75368449  0.12837978    -0.38400
N682        N  0.55720053  0.71221351  0.01226386    -0.40000
N683        N  0.40907646  0.77429343  0.06285506    -0.37800
N684        N  0.42437731  0.73714577  0.94506925    -0.40100
N685        N  0.52665132  0.77735938  0.93106534    -0.39900
N686        N  0.52921585  0.74496424  0.80637072    -0.37500
N687        N  0.45835526  0.63119717  0.88923991    -0.38600
N688        N  0.46159136  0.66262031  0.01498175    -0.40300
C689        C  0.17986662  0.88350202  0.86174098    -0.05200
C690        C  0.17585425  0.87599945  0.81569062     0.09000
C691        C  0.19550893  0.88274801  0.78231379    -0.02600
C692        C  0.21891408  0.89748596  0.79488313    -0.00800
C693        C  0.22242834  0.90600156  0.84076562    -0.04500
C694        C  0.20294511  0.89862926  0.87423083     0.02600
C695        C  0.14994290  0.86253624  0.80218245     0.09400
C696        C  0.19143777  0.87470515  0.73501484     0.35300
C697        C  0.20585335  0.90753066  0.92129553     0.38700
C698        C  0.12686422  0.87860557  0.79311661    -0.04800
C699        C  0.10190313  0.86618669  0.78263269     0.02300
C700        C  0.10023482  0.83762662  0.77898301    -0.04400
C701        C  0.12334662  0.82152312  0.78795521    -0.00700
C702        C  0.14806985  0.83396718  0.80033807    -0.03200
C703        C  0.12905483  0.90799772  0.79355397     0.36000
C704        C  0.12153713  0.79216949  0.78531523     0.39700
C705        C  0.07813519  0.88292321  0.77437155     0.38800
C706        C  0.17158102  0.81747531  0.81126945     0.35700
C707        C  0.15986749  0.87599534  0.89613648     0.36400
C708        C  0.23989333  0.90274956  0.76102781     0.39600
N709        N  0.05918044  0.89632900  0.76816875    -0.38400
N710        N  0.13093862  0.93142622  0.79352873    -0.40000
N711        N  0.12018183  0.76873381  0.78346101    -0.37800
N712        N  0.19032627  0.80432209  0.82017086    -0.40100
N713        N  0.18812664  0.86828082  0.69728953    -0.39900
N714        N  0.25678802  0.90639222  0.73405294    -0.37500
N715        N  0.20762520  0.91453820  0.95899139    -0.38600
N716        N  0.14388955  0.86993987  0.92345743    -0.40300
C717        C  0.33930581  0.82587528  0.78775094    -0.05200
C718        C  0.36774302  0.82236928  0.79069247     0.09000
C719        C  0.38359314  0.84247284  0.81221880    -0.02600
C720        C  0.37133915  0.86622681  0.82947519    -0.00800
C721        C  0.34305550  0.87052627  0.82473768    -0.04500
C722        C  0.32696105  0.84979305  0.80493305     0.02600
C723        C  0.38134226  0.79718885  0.77285111     0.09400
C724        C  0.41264372  0.83840603  0.81740941     0.35300
C725        C  0.29771823  0.85281270  0.80233718     0.38700
C726        C  0.39819872  0.79858360  0.73360691    -0.04800
C727        C  0.41381853  0.77588233  0.72014736     0.02300
C728        C  0.41230491  0.75139437  0.74532100    -0.04400
C729        C  0.39483561  0.74975459  0.78380698    -0.00700
C730        C  0.37965048  0.77265155  0.79777058    -0.03200
C731        C  0.39985078  0.82364349  0.70756727     0.36000
C732        C  0.39340629  0.72487398  0.81039406     0.39700
C733        C  0.43115849  0.77766166  0.67992752     0.38800
C734        C  0.36305265  0.77131906  0.83887550     0.35700
C735        C  0.32274984  0.80477709  0.76727372     0.36400
C736        C  0.38780148  0.88532301  0.85494554     0.39600
N737        N  0.44504136  0.77910686  0.64793433    -0.38400
N738        N  0.40129572  0.84367334  0.68693982    -0.40000
N739        N  0.39228729  0.70503059  0.83158924    -0.37800
N740        N  0.34979230  0.77035416  0.87165573    -0.40100
N741        N  0.43579929  0.83510433  0.82128808    -0.39900
N742        N  0.40119289  0.90011963  0.87572125    -0.37500
N743        N  0.27431964  0.85475956  0.80070707    -0.38600
N744        N  0.30948143  0.78785723  0.75132038    -0.40300
C745        C  0.43691034  0.89106603  0.05124893    -0.05200
C746        C  0.42681656  0.91633264  0.06696660     0.09000
C747        C  0.43094251  0.92367492  0.11339798    -0.02600
C748        C  0.44114542  0.90435483  0.14494571    -0.00800
C749        C  0.44880536  0.87823825  0.12957212    -0.04500
C750        C  0.44860551  0.87255669  0.08219889     0.02600
C751        C  0.40856584  0.93271135  0.03609252     0.09400
C752        C  0.42344008  0.95060200  0.12908095     0.35300
C753        C  0.45966981  0.84714109  0.06522012     0.38700
C754        C  0.38049013  0.93434878  0.04588850    -0.04800
C755        C  0.36228190  0.94344431  0.01208971     0.02300
C756        C  0.37126064  0.94766761  0.96653807    -0.04400
C757        C  0.39954884  0.94966543  0.95838452    -0.00700
C758        C  0.41814605  0.94298933  0.99369686    -0.03200
C759        C  0.36984162  0.92494515  0.08955967     0.36000
C760        C  0.40965403  0.95722191  0.91350362     0.39700
C761        C  0.33446915  0.94941679  0.02496215     0.38800
C762        C  0.44715581  0.94514396  0.98580096     0.35700
C763        C  0.43361869  0.88306845  0.00371221     0.36400
C764        C  0.44160894  0.91055508  0.19353469     0.39600
N765        N  0.31274151  0.95492468  0.03694365    -0.38400
N766        N  0.36122439  0.91749826  0.12430752    -0.40000
N767        N  0.41788402  0.96309224  0.87764796    -0.37800
N768        N  0.47034728  0.94677835  0.97979598    -0.40100
N769        N  0.41744012  0.97206123  0.14176049    -0.39900
N770        N  0.44186502  0.91534573  0.23236926    -0.37500
N771        N  0.46863026  0.82714469  0.05083485    -0.38600
N772        N  0.43116039  0.87659125  0.96583001    -0.40300
C773        C  0.11231803  0.85524231  0.24844532    -0.05200
C774        C  0.09830028  0.83930262  0.28121379     0.09000
C775        C  0.09976894  0.84640314  0.32790735    -0.02600
C776        C  0.11518998  0.86900877  0.34191331    -0.00800
C777        C  0.12952631  0.88503257  0.30934524    -0.04500
C778        C  0.12797116  0.87793679  0.26243268     0.02600
C779        C  0.08335125  0.81389868  0.26764266     0.09400
C780        C  0.08564759  0.83004350  0.36191221     0.35300
C781        C  0.14375796  0.89287134  0.22882979     0.38700
C782        C  0.09803759  0.79004310  0.25752199    -0.04800
C783        C  0.08428791  0.76535975  0.24923579     0.02300
C784        C  0.05546276  0.76419323  0.25042307    -0.04400
C785        C  0.04082561  0.78805325  0.26214966    -0.00700
C786        C  0.05469933  0.81279871  0.26988327    -0.03200
C787        C  0.12752077  0.79080701  0.25660197     0.36000
C788        C  0.01143597  0.78748557  0.26589003     0.39700
C789        C  0.10020165  0.74090711  0.24217060     0.38800
C790        C  0.03948769  0.83729139  0.28028107     0.35700
C791        C  0.11090267  0.84800392  0.20035686     0.36400
C792        C  0.11610519  0.87548796  0.39034934     0.39600
N793        N  0.11330597  0.72162994  0.23702191    -0.38400
N794        N  0.15101602  0.79150839  0.25568385    -0.40000
N795        N  0.98799412  0.78707447  0.26902246    -0.37800
N796        N  0.02740364  0.85684273  0.28868519    -0.40100
N797        N  0.07426691  0.81708689  0.38892904    -0.39900
N798        N  0.11687585  0.88016332  0.42915295    -0.37500
N799        N  0.15659000  0.90453963  0.20199130    -0.38600
N800        N  0.10984113  0.84215115  0.16199032    -0.40300
C801        C  0.08211153  0.88148270  0.57162268    -0.05200
C802        C  0.06695773  0.90553305  0.56533544     0.09000
C803        C  0.04254905  0.90943741  0.58995062    -0.02600
C804        C  0.03335680  0.88927974  0.62090646    -0.00800
C805        C  0.04863459  0.86523374  0.62722176    -0.04500
C806        C  0.07303391  0.86144247  0.60218244     0.02600
C807        C  0.07772638  0.92625509  0.53263166     0.09400
C808        C  0.02725793  0.93432854  0.58396164     0.35300
C809        C  0.08969446  0.83738205  0.60881594     0.38700
C810        C  0.06893570  0.92600455  0.48675077    -0.04800
C811        C  0.08622638  0.93574716  0.45178125     0.02300
C812        C  0.11272291  0.94503073  0.46290887    -0.04400
C813        C  0.11941299  0.94929112  0.50954491    -0.00700
C814        C  0.10159514  0.94039691  0.54428730    -0.03200
C815        C  0.04303821  0.91375564  0.47527178     0.36000
C816        C  0.14514498  0.96155900  0.52204929     0.39700
C817        C  0.07756328  0.93352570  0.40440974     0.38800
C818        C  0.10889586  0.94332882  0.59216408     0.35700
C819        C  0.10776286  0.87764838  0.54763446     0.36400
C820        C  0.00789390  0.89293494  0.64527205     0.39600
N821        N  0.07067515  0.93165716  0.36664169    -0.38400
N822        N  0.02231479  0.90414938  0.46601027    -0.40000
N823        N  0.16572592  0.97119571  0.53209628    -0.37800
N824        N  0.11455380  0.94559065  0.63044059    -0.40100
N825        N  0.01506395  0.95422784  0.57922283    -0.39900
N826        N  0.98754124  0.89572036  0.66468609    -0.37500
N827        N  0.10316196  0.81831844  0.61357587    -0.38600
N828        N  0.12844818  0.87465802  0.52937207    -0.40300
C829        C  0.22175330  0.00134264  0.03947424    -0.05200
C830        C  0.21966774  0.98188300  0.07464197     0.09000
C831        C  0.23172899  0.95613842  0.06923060    -0.02600
C832        C  0.24609186  0.94981690  0.02892236    -0.00800
C833        C  0.24932313  0.96963824  0.99398926    -0.04500
C834        C  0.23698384  0.99551379  0.99960248     0.02600
C835        C  0.20761015  0.98899705  0.11995262     0.09400
C836        C  0.22980083  0.93626427  0.10593359     0.35300
C837        C  0.24091073  0.01670574  0.96565388     0.38700
C838        C  0.18172082  0.97925129  0.13244074    -0.04800
C839        C  0.17354116  0.97952489  0.17883162     0.02300
C840        C  0.19200316  0.98818870  0.21308705    -0.04400
C841        C  0.21659916  0.00099543  0.19939169    -0.00700
C842        C  0.22420225  0.00149219  0.15293271    -0.03200
C843        C  0.16429750  0.96737330  0.09782571     0.36000
C844        C  0.23452628  0.01341139  0.23282478     0.39700
C845        C  0.14659528  0.96993938  0.19087800     0.38800
C846        C  0.25000874  0.01332078  0.13923833     0.35700
C847        C  0.20845995  0.02745905  0.04479748     0.36400
C848        C  0.25692251  0.92255314  0.02354815     0.39600
N849        N  0.12495188  0.96259430  0.20030191    -0.38400
N850        N  0.15048695  0.95771608  0.07025003    -0.40000
N851        N  0.24892198  0.02331590  0.25928948    -0.37800
N852        N  0.27051766  0.02277646  0.12812755    -0.40100
N853        N  0.22823767  0.92056868  0.13535482    -0.39900
N854        N  0.26540333  0.90075551  0.01946850    -0.37500
N855        N  0.24411062  0.03371848  0.93879070    -0.38600
N856        N  0.19770584  0.04821851  0.04904047    -0.40300
C857        C  0.26612934  0.94774685  0.54464563    -0.05200
C858        C  0.26406136  0.97151245  0.57126415     0.09000
C859        C  0.25056649  0.99449466  0.55329276    -0.02600
C860        C  0.23698843  0.99289814  0.51079264    -0.00800
C861        C  0.23776470  0.96853173  0.48510600    -0.04500
C862        C  0.25379315  0.94650890  0.50123160     0.02600
C863        C  0.27282652  0.97105606  0.62038451     0.09400
C864        C  0.24981991  0.01948767  0.57958031     0.35300
C865        C  0.25784626  0.92238908  0.47333891     0.38700
C866        C  0.30057111  0.97098238  0.63252472    -0.04800
C867        C  0.30830942  0.96911364  0.67909772     0.02300
C868        C  0.28828353  0.96803875  0.71401013    -0.04400
C869        C  0.26039176  0.96921593  0.70139926    -0.00700
C870        C  0.25285320  0.96970561  0.65493993    -0.03200
C871        C  0.32110893  0.97289237  0.59694815     0.36000
C872        C  0.23888585  0.96977681  0.73555916     0.39700
C873        C  0.33687618  0.96967634  0.69100753     0.38800
C874        C  0.22430503  0.96814479  0.64249543     0.35700
C875        C  0.27988166  0.92402195  0.56291934     0.36400
C876        C  0.22105305  0.01584979  0.49506559     0.39600
N877        N  0.35967076  0.97022359  0.70056061    -0.38400
N878        N  0.33743742  0.97432891  0.56843208    -0.40000
N879        N  0.22110487  0.97057136  0.76157651    -0.37800
N880        N  0.20160384  0.96679463  0.63253915    -0.40100
N881        N  0.24925514  0.03941017  0.60060270    -0.39900
N882        N  0.20828922  0.03413293  0.48253338    -0.37500
N883        N  0.26118293  0.90312182  0.45129832    -0.38600
N884        N  0.29080462  0.90510612  0.57754286    -0.40300
C885        C  0.30915822  0.90476764  0.32811926    -0.05200
C886        C  0.30679545  0.87926450  0.30663290     0.09000
C887        C  0.28074521  0.86840476  0.29827127    -0.02600
C888        C  0.25713599  0.88328160  0.31019312    -0.00800
C889        C  0.25935408  0.90906931  0.33174180    -0.04500
C890        C  0.28574296  0.91932417  0.34151057     0.02600
C891        C  0.33194999  0.86439929  0.29154158     0.09400
C892        C  0.27831275  0.84178544  0.27736307     0.35300
C893        C  0.28922242  0.94433711  0.36718493     0.38700
C894        C  0.34902296  0.85168810  0.32406326    -0.04800
C895        C  0.37382724  0.83974425  0.31011149     0.02300
C896        C  0.38142318  0.83996751  0.26349858    -0.04400
C897        C  0.36404110  0.85204604  0.23080221    -0.00700
C898        C  0.33961432  0.86455157  0.24487323    -0.03200
C899        C  0.34123711  0.85136495  0.37201248     0.36000
C900        C  0.37163353  0.85238110  0.18268086     0.39700
C901        C  0.39147215  0.82702551  0.34354937     0.38800
C902        C  0.32282809  0.87854198  0.21155830     0.35700
C903        C  0.33593667  0.91613857  0.33619044     0.36400
C904        C  0.23068395  0.87204459  0.29926749     0.39600
N905        N  0.40558202  0.81681327  0.37012070    -0.38400
N906        N  0.33504341  0.85126389  0.41030517    -0.40000
N907        N  0.37745039  0.85267457  0.14421655    -0.37800
N908        N  0.30947005  0.88981307  0.18508883    -0.40100
N909        N  0.27643015  0.82053048  0.26073842    -0.39900
N910        N  0.20960105  0.86301317  0.29063443    -0.37500
N911        N  0.29211476  0.96416912  0.38790164    -0.38600
N912        N  0.35735137  0.92504234  0.34254168    -0.40300
C913        C  0.34680611  0.39539484  0.38164136    -0.05200
C914        C  0.36980320  0.39285369  0.35271838     0.09000
C915        C  0.37617472  0.41420521  0.32234437    -0.02600
C916        C  0.36044358  0.43816493  0.32186129    -0.00800
C917        C  0.33803525  0.44141362  0.35220400    -0.04500
C918        C  0.33098044  0.41958630  0.38145569     0.02600
C919        C  0.38857406  0.36862455  0.35519741     0.09400
C920        C  0.39948290  0.41171064  0.29198403     0.35300
C921        C  0.30829365  0.42246641  0.41281943     0.38700
C922        C  0.38820964  0.34852773  0.32052792    -0.04800
C923        C  0.40979140  0.32959447  0.31668261     0.02300
C924        C  0.43176612  0.33053886  0.34752742    -0.04400
C925        C  0.43035805  0.34829566  0.38543645    -0.00700
C926        C  0.40925325  0.36772503  0.38868324    -0.03200
C927        C  0.36629208  0.34825610  0.28751000     0.29600
C928        C  0.45067981  0.34651160  0.42113700     0.39700
C929        C  0.40961645  0.30923129  0.28085465     0.38800
C930        C  0.40983014  0.38798223  0.42472727     0.35700
C931        C  0.33969250  0.37315938  0.41187779     0.36400
C932        C  0.36749387  0.45944440  0.28946416     0.39600
N933        N  0.40936970  0.29263317  0.25278053    -0.38400
N934        N  0.34877403  0.34809154  0.26115359    -0.40000
N935        N  0.46642588  0.34467441  0.45033160    -0.37800
N936        N  0.41036335  0.40428957  0.45327356    -0.40100
N937        N  0.41803476  0.40964657  0.26777087    -0.39900
N938        N  0.37336785  0.47625686  0.26353857    -0.37500
N939        N  0.29020590  0.42480459  0.43794872    -0.38600
N940        N  0.33407651  0.35529953  0.43588877    -0.40300
C941        C  0.38565529  0.13038221  0.85484522    -0.05200
C942        C  0.38698639  0.10199162  0.86062313     0.09000
C943        C  0.41245085  0.08896996  0.86107581    -0.02600
C944        C  0.43642419  0.10390812  0.85349979    -0.00800
C945        C  0.43530859  0.13240997  0.84523777    -0.04500
C946        C  0.40967299  0.14562766  0.84752726     0.02600
C947        C  0.36188486  0.08480228  0.86158834     0.09400
C948        C  0.41388843  0.05974124  0.86796282     0.35300
C949        C  0.40760688  0.17473535  0.84074577     0.38700
C950        C  0.35031295  0.07647424  0.81969531    -0.04800
C951        C  0.33238235  0.05417991  0.81862474     0.02300
C952        C  0.32640014  0.03975823  0.85929159    -0.04400
C953        C  0.33588775  0.04964710  0.90170001    -0.00700
C954        C  0.35333824  0.07242173  0.90288038    -0.03200
C955        C  0.35873091  0.08938135  0.77724430     0.36000
C956        C  0.32995437  0.03473194  0.94342034     0.39700
C957        C  0.32123787  0.04508825  0.77524905     0.38800
C958        C  0.36418787  0.08190077  0.94613325     0.35700
C959        C  0.35942709  0.14376359  0.85537027     0.36400
C960        C  0.46204644  0.08928818  0.85418815     0.39600
N961        N  0.31231914  0.03790487  0.74065321    -0.38400
N962        N  0.36563992  0.09968000  0.74350907    -0.40000
N963        N  0.32528448  0.02255000  0.97644379    -0.37800
N964        N  0.37285368  0.08952200  0.98063791    -0.40100
N965        N  0.41497789  0.03649236  0.87355352    -0.39900
N966        N  0.48202866  0.07690555  0.85441118    -0.37500
N967        N  0.40597561  0.19798627  0.83555730    -0.38600
N968        N  0.33850160  0.15447990  0.85569838    -0.40300
C969        C  0.52167124  0.25865496  0.01992247    -0.05200
C970        C  0.50202645  0.25098520  0.05279620     0.09000
C971        C  0.48391805  0.22955173  0.04257886    -0.02600
C972        C  0.48545645  0.21598292  0.99984287    -0.00800
C973        C  0.50660613  0.22216492  0.96859565    -0.04500
C974        C  0.52462372  0.24375858  0.97890383     0.02600
C975        C  0.50190908  0.26435525  0.09920950     0.09400
C976        C  0.46442875  0.22074380  0.07683653     0.35300
C977        C  0.54628355  0.25095539  0.94729815     0.38700
C978        C  0.48078983  0.28222504  0.11255464    -0.04800
C979        C  0.48101930  0.29437672  0.15657321     0.02300
C980        C  0.50293406  0.28971670  0.18661925    -0.04400
C981        C  0.52472679  0.27320463  0.17209308    -0.00700
C982        C  0.52371144  0.25968405  0.12957709    -0.03200
C983        C  0.45877103  0.28791610  0.08112808     0.36000
C984        C  0.54820860  0.26983638  0.20123131     0.39700
C985        C  0.45900538  0.31205262  0.17071274     0.38800
C986        C  0.54459363  0.24001864  0.11789088     0.35700
C987        C  0.53904807  0.28190371  0.02857329     0.36400
C988        C  0.46558610  0.19532563  0.98861286     0.39600
N989        N  0.44153363  0.32637687  0.18176141    -0.38400
N990        N  0.44117219  0.29237383  0.05601518    -0.40000
N991        N  0.56719792  0.26734114  0.22400978    -0.37800
N992        N  0.56109418  0.22414636  0.10878023    -0.40100
N993        N  0.44903136  0.21366033  0.10440122    -0.39900
N994        N  0.44946163  0.17911680  0.97947876    -0.37500
N995        N  0.56386009  0.25668010  0.92270772    -0.38600
N996        N  0.55282251  0.30049540  0.03546149    -0.40300
C997        C  0.48542231  0.23116489  0.63262574    -0.05200
C998        C  0.48594041  0.21228102  0.59642031     0.09000
C999        C  0.48512143  0.18427219  0.60603977    -0.02600
C1000       C  0.48578659  0.17505406  0.65182791    -0.00800
C1001       C  0.48803173  0.19390759  0.68853556    -0.04500
C1002       C  0.48634837  0.22216617  0.67846770     0.02600
C1003       C  0.49051328  0.22205209  0.54853825     0.09400
C1004       C  0.48444983  0.16495701  0.56848801     0.35300
C1005       C  0.48641001  0.24243119  0.71460509     0.38700
C1006       C  0.51693192  0.22094306  0.52985995    -0.04800
C1007       C  0.52232396  0.23252453  0.48674871     0.02300
C1008       C  0.50150115  0.24600871  0.46243254    -0.04400
C1009       C  0.47482206  0.24642696  0.48051778    -0.00700
C1010       C  0.46929911  0.23413414  0.52328113    -0.03200
C1011       C  0.53877370  0.20834095  0.55559383     0.36000
C1012       C  0.45334915  0.26060267  0.45639040     0.39700
C1013       C  0.54936297  0.23017365  0.46729178     0.38800
C1014       C  0.44192240  0.23418446  0.54174436     0.35700
C1015       C  0.48515269  0.26005261  0.62245759     0.36400
C1016       C  0.48366713  0.14612630  0.66069397     0.39600
N1017       N  0.57099819  0.22809267  0.45214207    -0.38400
N1018       N  0.55614198  0.19824897  0.57612170    -0.40000
N1019       N  0.43616515  0.27198476  0.43738399    -0.37800
N1020       N  0.42007849  0.23411396  0.55651987    -0.40100
N1021       N  0.48405092  0.14964350  0.53840733    -0.39900
N1022       N  0.48182929  0.12304470  0.66757400    -0.37500
N1023       N  0.48622421  0.25877159  0.74312486    -0.38600
N1024       N  0.48485629  0.28303850  0.61416042    -0.40300
C1025       C  0.84338460  0.88527736  0.71920363    -0.05200
C1026       C  0.86710377  0.88321929  0.69210176     0.09000
C1027       C  0.87126303  0.90167915  0.65575583    -0.02600
C1028       C  0.85336033  0.92374560  0.64974932    -0.00800
C1029       C  0.83150885  0.92767802  0.68043298    -0.04500
C1030       C  0.82554423  0.90750098  0.71329523     0.02600
C1031       C  0.88983328  0.86483111  0.70622653     0.09400
C1032       C  0.89505101  0.89899362  0.62662374     0.35300
C1033       C  0.80200658  0.91056783  0.74281367     0.38700
C1034       C  0.89340623  0.83902896  0.68600332    -0.04800
C1035       C  0.91695081  0.82354001  0.69558797     0.02300
C1036       C  0.93709029  0.83400001  0.72515775    -0.04400
C1037       C  0.93237060  0.85897744  0.74797894    -0.00700
C1038       C  0.90907423  0.87444464  0.73804480    -0.03200
C1039       C  0.87332317  0.82897156  0.65405523     0.36000
C1040       C  0.95143513  0.86884262  0.78205147     0.39700
C1041       C  0.92098451  0.79749778  0.67342059     0.38800
C1042       C  0.90543386  0.90092848  0.75912854     0.35700
C1043       C  0.83833118  0.86542283  0.75488859     0.36400
C1044       C  0.85791327  0.94296713  0.61290751     0.39600
N1045       N  0.92422701  0.77663996  0.65594778    -0.38400
N1046       N  0.85728285  0.82099585  0.62846847    -0.40000
N1047       N  0.96653002  0.87668096  0.80936155    -0.37800
N1048       N  0.90256438  0.92210934  0.77565552    -0.40100
N1049       N  0.91409707  0.89680622  0.60356193    -0.39900
N1050       N  0.86147928  0.95800325  0.58302368    -0.37500
N1051       N  0.78316933  0.91307031  0.76626968    -0.38600
N1052       N  0.83436472  0.84949215  0.78329584    -0.40300
C1053       C  0.68036534  0.06447757  0.76773753    -0.05200
C1054       C  0.67050575  0.08524474  0.73887405     0.09000
C1055       C  0.68359103  0.09041661  0.69685913    -0.02600
C1056       C  0.70633456  0.07492741  0.68342587    -0.00800
C1057       C  0.71710392  0.05451915  0.71289188    -0.04500
C1058       C  0.70317303  0.04877532  0.75451612     0.02600
C1059       C  0.64565062  0.10118136  0.75176605     0.09400
C1060       C  0.67369346  0.11207590  0.66752060     0.35300
C1061       C  0.71167681  0.02651516  0.78372748     0.38700
C1062       C  0.64744688  0.12268967  0.78339454    -0.04800
C1063       C  0.62391552  0.13716349  0.79656838     0.02300
C1064       C  0.59822334  0.13075595  0.77707942    -0.04400
C1065       C  0.59700205  0.11026013  0.74284662    -0.00700
C1066       C  0.62050751  0.09534755  0.73093031    -0.03200
C1067       C  0.67375845  0.13023415  0.80174274     0.36000
C1068       C  0.57158914  0.10372102  0.72032710     0.39700
C1069       C  0.62657248  0.15896277  0.82976039     0.38800
C1070       C  0.61888120  0.07377742  0.69713055     0.35700
C1071       C  0.66717432  0.05955880  0.81151034     0.36400
C1072       C  0.71757725  0.07940137  0.63794652     0.39600
N1073       N  0.62874204  0.17629681  0.85629565    -0.38400
N1074       N  0.69477803  0.13637291  0.81606033    -0.40000
N1075       N  0.55142758  0.09847406  0.70203920    -0.37800
N1076       N  0.61770177  0.05665941  0.67003156    -0.40100
N1077       N  0.66578604  0.12938824  0.64427700    -0.39900
N1078       N  0.72642403  0.08293687  0.60162827    -0.37500
N1079       N  0.71802600  0.00853251  0.80691324    -0.38600
N1080       N  0.65683400  0.05585175  0.84663793    -0.40300
C1081       C  0.57964430  0.86026141  0.16338965    -0.05200
C1082       C  0.59645416  0.86551667  0.20151873     0.09000
C1083       C  0.59207883  0.85097000  0.24262099    -0.02600
C1084       C  0.56892047  0.83425271  0.24753366    -0.00800
C1085       C  0.55035250  0.83157655  0.21102600    -0.04500
C1086       C  0.55671882  0.84317361  0.16807840     0.02600
C1087       C  0.61457321  0.89009746  0.20159490     0.09400
C1088       C  0.61080164  0.85432659  0.28045635     0.35300
C1089       C  0.53879777  0.83879458  0.12947955     0.38700
C1090       C  0.60504432  0.91401472  0.22278410    -0.04800
C1091       C  0.62095916  0.93773500  0.22250310     0.02300
C1092       C  0.64596332  0.93859183  0.19811541    -0.04400
C1093       C  0.65614607  0.91427409  0.17868210    -0.00700
C1094       C  0.64052730  0.89004512  0.18072619    -0.03200
C1095       C  0.57839720  0.91436923  0.24437319     0.36000
C1096       C  0.68242347  0.91417637  0.15619029     0.39700
C1097       C  0.61190468  0.96085218  0.24948470     0.38800
C1098       C  0.65101889  0.86506658  0.16133916     0.35700
C1099       C  0.58513140  0.87363216  0.12008225     0.36400
C1100       C  0.56387313  0.82015198  0.29036149     0.39600
N1101       N  0.60460729  0.97900655  0.27151901    -0.38400
N1102       N  0.55713400  0.91461857  0.26140576    -0.40000
N1103       N  0.70350897  0.91410012  0.13853049    -0.37800
N1104       N  0.65938335  0.84504912  0.14602831    -0.40100
N1105       N  0.62589063  0.85699577  0.31045849    -0.39900
N1106       N  0.55988232  0.80872758  0.32439260    -0.37500
N1107       N  0.52454998  0.83512880  0.09864319    -0.38600
N1108       N  0.58965492  0.88420537  0.08546562    -0.40300
C1109       C  0.59912061  0.18728016  0.29705632    -0.05200
C1110       C  0.58889078  0.17208355  0.26013800     0.09000
C1111       C  0.56409305  0.17975492  0.23985870    -0.02600
C1112       C  0.54885258  0.20173212  0.25779515    -0.00800
C1113       C  0.55907241  0.21747286  0.29497717    -0.04500
C1114       C  0.58505875  0.21032174  0.31325622     0.02600
C1115       C  0.60447870  0.14778372  0.24340492     0.09400
C1116       C  0.55448594  0.16522047  0.19979774     0.35300
C1117       C  0.59849856  0.22672843  0.34777997     0.38700
C1118       C  0.59523556  0.12137663  0.25365450    -0.04800
C1119       C  0.61113369  0.09855632  0.24186530     0.02300
C1120       C  0.63731260  0.10194227  0.22203661    -0.04400
C1121       C  0.64642119  0.12853042  0.21159586    -0.00700
C1122       C  0.62966140  0.15120023  0.22082215    -0.03200
C1123       C  0.56927183  0.11767326  0.27653900     0.36000
C1124       C  0.67341700  0.13282035  0.19291418     0.39700
C1125       C  0.59966633  0.07166314  0.24828479     0.38800
C1126       C  0.63816975  0.17819455  0.20691693     0.35700
C1127       C  0.62445492  0.17908184  0.31854961     0.36400
C1128       C  0.52292056  0.20805125  0.23679693     0.39600
N1129       N  0.59016574  0.05035260  0.25316783    -0.38400
N1130       N  0.54852739  0.11470552  0.29462696    -0.40000
N1131       N  0.69502622  0.13637887  0.17838221    -0.37800
N1132       N  0.64467595  0.19977876  0.19565116    -0.40100
N1133       N  0.54684610  0.15375933  0.16770116    -0.39900
N1134       N  0.50224520  0.21296338  0.21990176    -0.37500
N1135       N  0.60985271  0.23975817  0.37461786    -0.38600
N1136       N  0.64465348  0.17252791  0.33548148    -0.40300
C1137       C  0.53730984  0.07933922  0.99421541    -0.05200
C1138       C  0.55578946  0.05942293  0.97898551     0.09000
C1139       C  0.55891771  0.05454831  0.93173947    -0.02600
C1140       C  0.54812408  0.07314565  0.89994746    -0.00800
C1141       C  0.53388943  0.09635135  0.91599543    -0.04500
C1142       C  0.52615122  0.09770735  0.96256201     0.02600
C1143       C  0.57781137  0.05098834  0.01066960     0.09400
C1144       C  0.57606866  0.03234235  0.91639194     0.35300
C1145       C  0.50779701  0.11877357  0.97830677     0.38700
C1146       C  0.57401863  0.03011797  0.04304857    -0.04800
C1147       C  0.59407997  0.02518976  0.07650845     0.02300
C1148       C  0.61781597  0.04143221  0.07776773    -0.04400
C1149       C  0.62142004  0.06235202  0.04498803    -0.00700
C1150       C  0.60187831  0.06654359  0.01089188    -0.03200
C1151       C  0.54946237  0.01389651  0.04190208     0.36000
C1152       C  0.64417678  0.08107612  0.04796166     0.39700
C1153       C  0.59023106  0.00345640  0.10946171     0.38800
C1154       C  0.60622157  0.08749548  0.97646451     0.35700
C1155       C  0.53227787  0.08278443  0.04287249     0.36400
C1156       C  0.55411337  0.06961247  0.85162345     0.39600
N1157       N  0.58712113  0.98618081  0.13587875    -0.38400
N1158       N  0.52988277  0.00091199  0.04097380    -0.40000
N1159       N  0.66206744  0.09625429  0.05029230    -0.37800
N1160       N  0.60968749  0.10395356  0.94871292    -0.40100
N1161       N  0.58980657  0.01468340  0.90418255    -0.39900
N1162       N  0.55890647  0.06658970  0.81308679    -0.37500
N1163       N  0.49311030  0.13547142  0.99109362    -0.38600
N1164       N  0.52834437  0.08552613  0.08173827    -0.40300
C1165       C  0.79025358  0.97489215  0.90551130    -0.05200
C1166       C  0.77417640  0.99634222  0.92278728     0.09000
C1167       C  0.76957443  0.01954159  0.89549649    -0.02600
C1168       C  0.77980913  0.02068720  0.85041279    -0.00800
C1169       C  0.79477606  0.99873003  0.83227277    -0.04500
C1170       C  0.80064745  0.97613424  0.86031311     0.02600
C1171       C  0.76216956  0.99501521  0.96993212     0.09400
C1172       C  0.75392270  0.04209686  0.91371190     0.35300
C1173       C  0.81779207  0.95450037  0.84298750     0.38700
C1174       C  0.77557792  0.00776317  0.00671023    -0.04800
C1175       C  0.76263931  0.01002878  0.04965728     0.02300
C1176       C  0.73590100  0.00021892  0.05576728    -0.04400
C1177       C  0.72306683  0.98603987  0.01984654    -0.00700
C1178       C  0.73629212  0.98327586  0.97701876    -0.03200
C1179       C  0.80229365  0.01951167  0.99975778     0.36000
C1180       C  0.69576829  0.97560837  0.02624678     0.39700
C1181       C  0.77693173  0.02248184  0.08764975     0.38800
C1182       C  0.72294183  0.96926408  0.93965385     0.35700
C1183       C  0.79593087  0.95159122  0.93428899     0.36400
C1184       C  0.77405945  0.04409886  0.82198065     0.39600
N1185       N  0.78868315  0.03215724  0.11779740    -0.38400
N1186       N  0.82353828  0.02902910  0.99416409    -0.40000
N1187       N  0.67396744  0.96735498  0.03150884    -0.37800
N1188       N  0.71239953  0.95800308  0.90978538    -0.40100
N1189       N  0.74152202  0.06009017  0.92840520    -0.39900
N1190       N  0.76923387  0.06265584  0.79914407    -0.37500
N1191       N  0.83182500  0.93735748  0.82964172    -0.38600
N1192       N  0.80041368  0.93305094  0.95745109    -0.40300
C1193       C  0.71569219  0.02403808  0.39771962    -0.05200
C1194       C  0.71585100  0.99840324  0.41945513     0.09000
C1195       C  0.70553134  0.97545561  0.39635588    -0.02600
C1196       C  0.69519834  0.97813197  0.35151831    -0.00800
C1197       C  0.69577161  0.00363625  0.32949900    -0.04500
C1198       C  0.70601408  0.02656422  0.35259374     0.02600
C1199       C  0.72819674  0.99570968  0.46592367     0.09400
C1200       C  0.70677088  0.94897969  0.41798649     0.35300
C1201       C  0.70759410  0.05251042  0.32903967     0.38700
C1202       C  0.71176433  0.99740173  0.50547964    -0.04800
C1203       C  0.72386724  0.99955943  0.54912623     0.02300
C1204       C  0.75249259  0.99951169  0.55325423    -0.04400
C1205       C  0.76876280  0.99552798  0.51386833    -0.00700
C1206       C  0.75664857  0.99378554  0.47029028    -0.03200
C1207       C  0.68243552  0.99759901  0.50092633     0.36000
C1208       C  0.79797836  0.99295074  0.51818596     0.39700
C1209       C  0.70688452  0.00343438  0.58932465     0.38800
C1210       C  0.77342185  0.99050281  0.42968488     0.35700
C1211       C  0.72636337  0.04764247  0.42134794     0.36400
C1212       C  0.68513225  0.95449874  0.32720484     0.39600
N1213       N  0.69329366  0.00659422  0.62132436    -0.38400
N1214       N  0.65904748  0.99751526  0.49700814    -0.40000
N1215       N  0.82128548  0.99066761  0.52136455    -0.37800
N1216       N  0.78671126  0.98784135  0.39720474    -0.40100
N1217       N  0.70800340  0.92784863  0.43523268    -0.39900
N1218       N  0.67710827  0.93567060  0.30773947    -0.37500
N1219       N  0.70894687  0.07303670  0.30982708    -0.38600
N1220       N  0.73494852  0.06643178  0.44021389    -0.40300
C1221       C  0.08469531  0.34284717  0.87538633    -0.05200
C1222       C  0.08938568  0.36699859  0.85051517     0.09000
C1223       C  0.07102276  0.37472326  0.81589418    -0.02600
C1224       C  0.04735889  0.35937598  0.80792956    -0.00800
C1225       C  0.04136936  0.33629014  0.83524365    -0.04500
C1226       C  0.06084136  0.32737367  0.86757355     0.02600
C1227       C  0.11166319  0.38636060  0.86329058     0.09400
C1228       C  0.07609736  0.39919916  0.78941050     0.35300
C1229       C  0.05612262  0.30278091  0.89366810     0.38700
C1230       C  0.13680235  0.38622272  0.83979260    -0.04800
C1231       C  0.15410251  0.40917539  0.84188424     0.02300
C1232       C  0.14614970  0.43227250  0.86726581    -0.04400
C1233       C  0.12281780  0.43077113  0.89547747    -0.00700
C1234       C  0.10560651  0.40793466  0.89339100    -0.03200
C1235       C  0.14427513  0.36292400  0.81221397     0.36000
C1236       C  0.11636372  0.45271013  0.92673970     0.39700
C1237       C  0.17938586  0.40959659  0.81632639     0.38800
C1238       C  0.08082052  0.40717337  0.92042945     0.35700
C1239       C  0.10411068  0.33441476  0.90978157     0.36400
C1240       C  0.02948081  0.36720851  0.77068492     0.39600
N1241       N  0.19970420  0.41001057  0.79627556    -0.38400
N1242       N  0.15037349  0.34421307  0.79049442    -0.40000
N1243       N  0.11093572  0.46962637  0.95270135    -0.37800
N1244       N  0.06105574  0.40644051  0.94197517    -0.40100
N1245       N  0.08020662  0.41877991  0.76856376    -0.39900
N1246       N  0.01538128  0.37348384  0.74082454    -0.37500
N1247       N  0.05257127  0.28301434  0.91430241    -0.38600
N1248       N  0.11969587  0.32771411  0.93716276    -0.40300
C1249       C  0.84622258  0.14138264  0.75977693    -0.05200
C1250       C  0.87411994  0.14418785  0.74941657     0.09000
C1251       C  0.88745855  0.12358668  0.72459539    -0.02600
C1252       C  0.87350473  0.09966096  0.71236454    -0.00800
C1253       C  0.84553096  0.09634702  0.72351462    -0.04500
C1254       C  0.83178933  0.11795722  0.74578074     0.02600
C1255       C  0.88958397  0.16903946  0.76381095     0.09400
C1256       C  0.91559129  0.12735764  0.71081041     0.35300
C1257       C  0.80278309  0.11654218  0.75402050     0.38700
C1258       C  0.90886980  0.16745540  0.79947479    -0.04800
C1259       C  0.92435411  0.19049513  0.81164278     0.02300
C1260       C  0.91916869  0.21588037  0.79061808    -0.04400
C1261       C  0.90071099  0.21710044  0.75352989    -0.00700
C1262       C  0.88630033  0.19370207  0.73983125    -0.03200
C1263       C  0.91261830  0.14205454  0.82388275     0.36000
C1264       C  0.89771071  0.24209416  0.72764145     0.39700
C1265       C  0.94578392  0.18777058  0.84531821     0.38800
C1266       C  0.86858828  0.19476719  0.70023490     0.35700
C1267       C  0.83240850  0.16261779  0.78522394     0.36400
C1268       C  0.88807916  0.07908920  0.68651596     0.39600
N1269       N  0.96312136  0.18533996  0.87171752    -0.38400
N1270       N  0.91553457  0.12177627  0.84332444    -0.40000
N1271       N  0.89553408  0.26200052  0.70686693    -0.37800
N1272       N  0.85459588  0.19552832  0.66846094    -0.40100
N1273       N  0.93796953  0.13052462  0.69977152    -0.39900
N1274       N  0.90015484  0.06293713  0.66610274    -0.37500
N1275       N  0.77953838  0.11611440  0.75999930    -0.38600
N1276       N  0.82138959  0.17954141  0.80558395    -0.40300
C1277       C  0.09506032  0.13743114  0.35860126    -0.05200
C1278       C  0.09502766  0.10891101  0.35496792     0.09000
C1279       C  0.07111478  0.09537161  0.34172922    -0.02600
C1280       C  0.04726817  0.11010567  0.33220649    -0.00800
C1281       C  0.04694370  0.13898197  0.33560928    -0.04500
C1282       C  0.07118794  0.15246084  0.34899016     0.02600
C1283       C  0.12004932  0.09236349  0.36362489     0.09400
C1284       C  0.07117335  0.06592668  0.33756378     0.35300
C1285       C  0.07221278  0.18183192  0.35114780     0.38700
C1286       C  0.12188353  0.07681072  0.40410297    -0.04800
C1287       C  0.13918591  0.05398543  0.40565535     0.02300
C1288       C  0.15544399  0.04724661  0.36733282    -0.04400
C1289       C  0.15665415  0.06533489  0.32976906    -0.00700
C1290       C  0.13859060  0.08759193  0.32754303    -0.03200
C1291       C  0.10428328  0.08307796  0.44261938     0.36000
C1292       C  0.17455026  0.05970901  0.29141487     0.39700
C1293       C  0.13903791  0.03645328  0.44557075     0.38800
C1294       C  0.13728286  0.10407340  0.28640125     0.35700
C1295       C  0.11982805  0.15125017  0.37181340     0.36400
C1296       C  0.02320229  0.09485055  0.31945493     0.39600
N1297       N  0.13881521  0.02247786  0.47744573    -0.38400
N1298       N  0.09022190  0.08818450  0.47328941    -0.40000
N1299       N  0.18879352  0.05559431  0.26058601    -0.37800
N1300       N  0.13609343  0.11718828  0.25354811    -0.40100
N1301       N  0.07131903  0.04249423  0.33439829    -0.39900
N1302       N  0.00447012  0.08208481  0.30902533    -0.37500
N1303       N  0.07338352  0.20527919  0.35271952    -0.38600
N1304       N  0.13964980  0.16223706  0.38222674    -0.40300
C1305       C  0.79317073  0.10664672  0.19856904    -0.05200
C1306       C  0.80996699  0.09669709  0.23382523     0.09000
C1307       C  0.80450505  0.07107528  0.25348040    -0.02600
C1308       C  0.78163520  0.05596237  0.23943286    -0.00800
C1309       C  0.76438325  0.06611390  0.20463258    -0.04500
C1310       C  0.77090496  0.09116714  0.18321718     0.02600
C1311       C  0.83406573  0.11278924  0.24923472     0.09400
C1312       C  0.82267852  0.06020529  0.28800850     0.35300
C1313       C  0.75567611  0.10049591  0.14367899     0.38700
C1314       C  0.83375526  0.12613405  0.29205172    -0.04800
C1315       C  0.85726193  0.13951669  0.30802754     0.02300
C1316       C  0.88086314  0.14071832  0.28018880    -0.04400
C1317       C  0.88043760  0.12870141  0.23609780    -0.00700
C1318       C  0.85750311  0.11403093  0.22143419    -0.03200
C1319       C  0.80942338  0.12531502  0.32022633     0.36000
C1320       C  0.90357378  0.13145112  0.20547532     0.39700
C1321       C  0.85757799  0.15032797  0.35428553     0.38800
C1322       C  0.85843251  0.09911626  0.17856099     0.35700
C1323       C  0.79888780  0.13288830  0.17800802     0.36400
C1324       C  0.77581197  0.03022361  0.26157099     0.39600
N1325       N  0.85780221  0.15871623  0.39134118    -0.38400
N1326       N  0.78998583  0.12454633  0.34260633    -0.40000
N1327       N  0.92191113  0.13370188  0.18084838    -0.37800
N1328       N  0.85921486  0.08698180  0.14461623    -0.40100
N1329       N  0.83728180  0.05164220  0.31546403    -0.39900
N1330       N  0.77140140  0.00965454  0.27929843    -0.37500
N1331       N  0.74375229  0.10783514  0.11186519    -0.38600
N1332       N  0.80348635  0.15379815  0.16160440    -0.40300
C1333       C  0.92439973  0.05679456  0.42971579    -0.05200
C1334       C  0.92525383  0.06209047  0.47727173     0.09000
C1335       C  0.94043838  0.08437015  0.49367337    -0.02600
C1336       C  0.95155227  0.10321829  0.46251267    -0.00800
C1337       C  0.94746442  0.09981480  0.41503645    -0.04500
C1338       C  0.93518846  0.07585842  0.39852325     0.02600
C1339       C  0.90488712  0.04902912  0.50837189     0.09400
C1340       C  0.94260517  0.08915203  0.54259994     0.35300
C1341       C  0.93094445  0.07232625  0.34969275     0.38700
C1342       C  0.91269210  0.03053986  0.54278282    -0.04800
C1343       C  0.89382375  0.02240561  0.57685681     0.02300
C1344       C  0.86666850  0.03222511  0.57576206    -0.04400
C1345       C  0.85840006  0.04824864  0.53755100    -0.00700
C1346       C  0.87758560  0.05737511  0.50534839    -0.03200
C1347       C  0.94041257  0.02060608  0.54373329     0.36000
C1348       C  0.83014897  0.05580388  0.53057618     0.39700
C1349       C  0.90300628  0.00501588  0.61380530     0.38800
C1350       C  0.86940100  0.07664102  0.47014548     0.35700
C1351       C  0.90998207  0.03311852  0.41299949     0.36400
C1352       C  0.96587603  0.12693534  0.47933802     0.39600
N1353       N  0.91046131  0.99113729  0.64322347    -0.38400
N1354       N  0.96253983  0.01266889  0.54432559    -0.40000
N1355       N  0.80778549  0.06203799  0.52433659    -0.37800
N1356       N  0.86295907  0.09203665  0.44222593    -0.40100
N1357       N  0.94436290  0.09287774  0.58164452    -0.39900
N1358       N  0.97739999  0.14574343  0.49295684    -0.37500
N1359       N  0.92738439  0.06971127  0.31075134    -0.38600
N1360       N  0.89833523  0.01429717  0.39972582    -0.40300
C1361       C  0.95632505  0.21853825  0.01803922    -0.05200
C1362       C  0.97353745  0.23149386  0.04986870     0.09000
C1363       C  0.98692321  0.25579205  0.03723325    -0.02600
C1364       C  0.98361881  0.26659174  0.99268930    -0.00800
C1365       C  0.96602770  0.25378854  0.96115727    -0.04500
C1366       C  0.95133134  0.23047184  0.97506390     0.02600
C1367       C  0.97572765  0.22026951  0.09753353     0.09400
C1368       C  0.00349223  0.27008419  0.07040924     0.35300
C1369       C  0.92993886  0.21937226  0.94657904     0.38700
C1370       C  0.00020268  0.20846338  0.11314137    -0.04800
C1371       C  0.00143882  0.19660066  0.15716406     0.02300
C1372       C  0.97788028  0.19523606  0.18473985    -0.04400
C1373       C  0.95328628  0.20649372  0.16879590    -0.00700
C1374       C  0.95251276  0.21991617  0.12622346    -0.03200
C1375       C  0.02398432  0.20820133  0.08370275     0.36000
C1376       C  0.92901030  0.20542353  0.19720337     0.39700
C1377       C  0.02673376  0.18513762  0.17367087     0.38800
C1378       C  0.92791367  0.23389448  0.11229214     0.35700
C1379       C  0.94360476  0.19281603  0.02969200     0.36400
C1380       C  0.99643619  0.29216675  0.98066803     0.39600
N1381       N  0.04687705  0.17599889  0.18702653    -0.38400
N1382       N  0.04298172  0.20810297  0.06023733    -0.40000
N1383       N  0.90971096  0.20456647  0.21991357    -0.37800
N1384       N  0.90832546  0.24510444  0.10126876    -0.40100
N1385       N  0.01678094  0.28150438  0.09677668    -0.39900
N1386       N  0.00631298  0.31274085  0.97111367    -0.37500
N1387       N  0.91219214  0.21081260  0.92504021    -0.38600
N1388       N  0.93356575  0.17230264  0.03912596    -0.40300
C1389       C  0.96728724  0.22935797  0.54723633    -0.05200
C1390       C  0.99046744  0.24576904  0.55224567     0.09000
C1391       C  0.00912451  0.24832326  0.51602416    -0.02600
C1392       C  0.00435643  0.23498146  0.47403914    -0.00800
C1393       C  0.98077715  0.21851991  0.46811459    -0.04500
C1394       C  0.96233586  0.21579660  0.50563191     0.02600
C1395       C  0.99417057  0.26137026  0.59547378     0.09400
C1396       C  0.03295511  0.26534820  0.52177915     0.35300
C1397       C  0.93740120  0.20020828  0.50175311     0.38700
C1398       C  0.01056526  0.25088507  0.63071949    -0.04800
C1399       C  0.00987142  0.26289957  0.67443893     0.02300
C1400       C  0.99150189  0.28437426  0.68371939    -0.04400
C1401       C  0.97731782  0.29663814  0.64699160    -0.00700
C1402       C  0.97885668  0.28517618  0.60284283    -0.03200
C1403       C  0.02685036  0.22677547  0.62270973     0.36000
C1404       C  0.95991271  0.31999009  0.65457726     0.39700
C1405       C  0.02804189  0.25311910  0.70990150     0.38800
C1406       C  0.96338077  0.29680386  0.56538669     0.35700
C1407       C  0.94801526  0.22711455  0.58492665     0.36400
C1408       C  0.02364321  0.23922506  0.43705954     0.39600
N1409       N  0.04266066  0.24554020  0.73814743    -0.38400
N1410       N  0.03970583  0.20744010  0.61641185    -0.40000
N1411       N  0.94607145  0.33872036  0.66007562    -0.37800
N1412       N  0.95104333  0.30590868  0.53537982    -0.40100
N1413       N  0.05195355  0.27890013  0.52641868    -0.39900
N1414       N  0.03898747  0.24326020  0.40772689    -0.37500
N1415       N  0.91745498  0.18786941  0.49907857    -0.38600
N1416       N  0.93265820  0.22556475  0.61493147    -0.40300
C1417       C  0.87859523  0.56587879  0.17010665    -0.05200
C1418       C  0.86767287  0.58899741  0.19180424     0.09000
C1419       C  0.84061971  0.58843372  0.20765627    -0.02600
C1420       C  0.82534577  0.56407946  0.20569699    -0.00800
C1421       C  0.83725804  0.53987183  0.18835544    -0.04500
C1422       C  0.86347099  0.54156845  0.16790256     0.02600
C1423       C  0.88631564  0.61186443  0.20460851     0.09400
C1424       C  0.82912227  0.61263688  0.22838100     0.35300
C1425       C  0.87552992  0.51818119  0.14543246     0.38700
C1426       C  0.89298158  0.63263066  0.17319094    -0.04800
C1427       C  0.91469252  0.65069113  0.18255379     0.02300
C1428       C  0.93012613  0.64766987  0.22318363    -0.04400
C1429       C  0.92117645  0.62873671  0.25673887    -0.00700
C1430       C  0.89961146  0.61084633  0.24723949    -0.03200
C1431       C  0.87803821  0.63474674  0.13062860     0.36000
C1432       C  0.93443710  0.62704313  0.30104966     0.39700
C1433       C  0.92155535  0.67160768  0.14957442     0.38800
C1434       C  0.89196605  0.59027328  0.28054599     0.35700
C1435       C  0.90626322  0.56664402  0.15271619     0.36400
C1436       C  0.79795432  0.56401651  0.22381452     0.39600
N1437       N  0.92667584  0.68854607  0.12344763    -0.38400
N1438       N  0.86604586  0.63647410  0.09669946    -0.40000
N1439       N  0.94498544  0.62541026  0.33634187    -0.37800
N1440       N  0.88584900  0.57381347  0.30694517    -0.40100
N1441       N  0.82005692  0.63197942  0.24498626    -0.39900
N1442       N  0.77601808  0.56458091  0.23806939    -0.37500
N1443       N  0.88559470  0.49970871  0.12770060    -0.38600
N1444       N  0.92836592  0.56731024  0.13912301    -0.40300
C1445       C  0.64621509  0.34017873  0.26410813    -0.05200
C1446       C  0.64905520  0.36839464  0.27077057     0.09000
C1447       C  0.62755151  0.38318770  0.29055133    -0.02600
C1448       C  0.60292343  0.37014090  0.30217404    -0.00800
C1449       C  0.59966148  0.34170368  0.29525448    -0.04500
C1450       C  0.62190097  0.32676101  0.27695318     0.02600
C1451       C  0.67461668  0.38279402  0.25649393     0.09400
C1452       C  0.63110906  0.41192987  0.29984648     0.35300
C1453       C  0.62022873  0.29757599  0.27113275     0.38700
C1454       C  0.67611163  0.39557616  0.21322929    -0.04800
C1455       C  0.69967867  0.41006186  0.20029383     0.02300
C1456       C  0.72226639  0.41114533  0.23000633    -0.04400
C1457       C  0.72097536  0.39795212  0.27295106    -0.00700
C1458       C  0.69698300  0.38438182  0.28659389    -0.03200
C1459       C  0.65334660  0.39367684  0.18195810     0.36000
C1460       C  0.74426740  0.39872858  0.30329375     0.39700
C1461       C  0.70095074  0.42317927  0.15579353     0.38800
C1462       C  0.69500389  0.37259009  0.33200206     0.35700
C1463       C  0.66850108  0.32496050  0.24397244     0.36400
C1464       C  0.58144076  0.38619950  0.32293835     0.39600
N1465       N  0.70188231  0.43365472  0.12031087    -0.38400
N1466       N  0.63518418  0.39206325  0.15701664    -0.40000
N1467       N  0.76304949  0.39935814  0.32703923    -0.37800
N1468       N  0.69328573  0.36340722  0.36840785    -0.40100
N1469       N  0.63413182  0.43478619  0.30753696    -0.39900
N1470       N  0.56438863  0.39919819  0.33928688    -0.37500
N1471       N  0.61975749  0.27422571  0.26667802    -0.38600
N1472       N  0.68630971  0.31288536  0.22788506    -0.40300
C1473       C  0.85005376  0.32906454  0.27352547    -0.05200
C1474       C  0.87645702  0.33185822  0.29142344     0.09000
C1475       C  0.88700651  0.35796020  0.30006158    -0.02600
C1476       C  0.87186208  0.38129628  0.28839353    -0.00800
C1477       C  0.84597218  0.37859015  0.26763625    -0.04500
C1478       C  0.83471796  0.35231073  0.26220535     0.02600
C1479       C  0.89343923  0.30726831  0.30071780     0.09400
C1480       C  0.91399024  0.36067491  0.31943823     0.35300
C1481       C  0.80721534  0.34912610  0.24523332     0.38700
C1482       C  0.91218003  0.29798158  0.26760998    -0.04800
C1483       C  0.92850405  0.27496040  0.27647988     0.02300
C1484       C  0.92570281  0.26056632  0.31842427    -0.04400
C1485       C  0.90812308  0.27133901  0.35272608    -0.00700
C1486       C  0.89165763  0.29409277  0.34337662    -0.03200
C1487       C  0.91453809  0.31220814  0.22419302     0.36000
C1488       C  0.90806203  0.26026840  0.39887529     0.39700
C1489       C  0.94864368  0.26702115  0.24271628     0.38800
C1490       C  0.87275626  0.30405308  0.37775887     0.35700
C1491       C  0.83900789  0.30218017  0.26552910     0.36400
C1492       C  0.88395472  0.40787022  0.29507199     0.39600
N1493       N  0.96507033  0.26151027  0.21583396    -0.38400
N1494       N  0.91637754  0.32358545  0.18960815    -0.40000
N1495       N  0.90822529  0.25165077  0.43578671    -0.37800
N1496       N  0.85757749  0.31192347  0.40505948    -0.40100
N1497       N  0.93555857  0.36266524  0.33474542    -0.39900
N1498       N  0.89383027  0.42896167  0.30040805    -0.37500
N1499       N  0.78524920  0.34667202  0.23182261    -0.38600
N1500       N  0.83024094  0.28072458  0.25900477    -0.40300
C1501       C  0.88280469  0.43681614  0.02538722    -0.05200
C1502       C  0.90116313  0.41500505  0.03008775     0.09000
C1503       C  0.90699183  0.40455965  0.07403002    -0.02600
C1504       C  0.89201896  0.41360906  0.11232062    -0.00800
C1505       C  0.87119925  0.43300553  0.10648281    -0.04500
C1506       C  0.86760537  0.44562276  0.06346625     0.02600
C1507       C  0.90977691  0.39952525  0.98862079     0.09400
C1508       C  0.92693599  0.38307299  0.07927701     0.35300
C1509       C  0.84730862  0.46678143  0.05804503     0.38700
C1510       C  0.93692025  0.40006926  0.97286974    -0.04800
C1511       C  0.94507106  0.38274368  0.93679632     0.02300
C1512       C  0.92573283  0.36588327  0.91538438    -0.04400
C1513       C  0.89821121  0.36713965  0.92859023    -0.00700
C1514       C  0.89045504  0.38300979  0.96627091    -0.03200
C1515       C  0.95643942  0.41787955  0.99463271     0.36000
C1516       C  0.87777595  0.35210246  0.90321471     0.39700
C1517       C  0.97339983  0.38129635  0.92323030     0.38800
C1518       C  0.86283000  0.38114089  0.98350166     0.35700
C1519       C  0.87820493  0.44877593  0.98064370     0.36400
C1520       C  0.89633554  0.40099822  0.15658919     0.39600
N1521       N  0.99602920  0.38003575  0.91254830    -0.38400
N1522       N  0.97194007  0.43214702  0.01213058    -0.40000
N1523       N  0.86141759  0.34040745  0.88275605    -0.37800
N1524       N  0.84085174  0.37927605  0.99728292    -0.40100
N1525       N  0.94294876  0.36604431  0.08351356    -0.39900
N1526       N  0.90005427  0.39064899  0.19159729    -0.37500
N1527       N  0.83112759  0.48366973  0.05404191    -0.38600
N1528       N  0.87450438  0.45824330  0.94489870    -0.40300
C1529       C  0.58398399  0.62494290  0.66867264    -0.05200
C1530       C  0.59393287  0.61031876  0.70681061     0.09000
C1531       C  0.58358773  0.61613233  0.75089667    -0.02600
C1532       C  0.56134181  0.63395916  0.75607970    -0.00800
C1533       C  0.54940760  0.64620052  0.71723724    -0.04500
C1534       C  0.56181797  0.64300726  0.67396821     0.02600
C1535       C  0.61061082  0.58507301  0.69996116     0.09400
C1536       C  0.59453947  0.60211277  0.79049037     0.35300
C1537       C  0.55081535  0.65719991  0.63467736     0.38700
C1538       C  0.63880311  0.58453475  0.70871597    -0.04800
C1539       C  0.65322164  0.55958431  0.70781092     0.02300
C1540       C  0.63943316  0.53495431  0.69848970    -0.04400
C1541       C  0.61126265  0.53584103  0.68853741    -0.00700
C1542       C  0.59706834  0.56069744  0.68917239    -0.03200
C1543       C  0.65264879  0.60951640  0.72054077     0.36000
C1544       C  0.59619020  0.51131224  0.67828571     0.39700
C1545       C  0.68179185  0.55906029  0.71973277     0.38800
C1546       C  0.56796440  0.56106216  0.68082762     0.35700
C1547       C  0.59542596  0.61997665  0.62364135     0.36400
C1548       C  0.54979577  0.63862267  0.80122056     0.39600
N1549       N  0.70455715  0.55853298  0.72949679    -0.38400
N1550       N  0.66364449  0.62946972  0.73021752    -0.40000
N1551       N  0.58282563  0.49262208  0.67010621    -0.37800
N1552       N  0.54478042  0.56140767  0.67437190    -0.40100
N1553       N  0.60338642  0.59086409  0.82191901    -0.39900
N1554       N  0.54072412  0.64232426  0.83732530    -0.37500
N1555       N  0.54211916  0.66879505  0.60349608    -0.38600
N1556       N  0.60457530  0.61595275  0.58769504    -0.40300
C1557       C  0.62356318  0.33558592  0.79963031    -0.05200
C1558       C  0.60998251  0.31959640  0.76666795     0.09000
C1559       C  0.61232166  0.32626650  0.71973517    -0.02600
C1560       C  0.62751004  0.34915981  0.70597627    -0.00800
C1561       C  0.63990593  0.36597708  0.73915982    -0.04500
C1562       C  0.63808614  0.35898746  0.78598000     0.02600
C1563       C  0.59332771  0.29552971  0.78108343     0.09400
C1564       C  0.59862925  0.30975501  0.68567901     0.35300
C1565       C  0.65136350  0.37581412  0.81999440     0.38700
C1566       C  0.56757241  0.29914785  0.80165192    -0.04800
C1567       C  0.55185706  0.27640255  0.81483259     0.02300
C1568       C  0.56136911  0.24970369  0.80590952    -0.04400
C1569       C  0.58649863  0.24637555  0.78257431    -0.00700
C1570       C  0.60286302  0.26905901  0.77227531    -0.03200
C1571       C  0.55728959  0.32638354  0.80942850     0.36000
C1572       C  0.59500176  0.21983818  0.76635022     0.39700
C1573       C  0.52629403  0.28073702  0.83863522     0.38800
C1574       C  0.62982455  0.26518686  0.75306468     0.35700
C1575       C  0.62269126  0.32778103  0.84752629     0.36400
C1576       C  0.62940928  0.35601357  0.65768676     0.39600
N1577       N  0.50592913  0.28417448  0.85771261    -0.38400
N1578       N  0.54908141  0.34810243  0.81568233    -0.40000
N1579       N  0.60177326  0.19890293  0.75239024    -0.37800
N1580       N  0.65140985  0.26219923  0.73806299    -0.40100
N1581       N  0.58775792  0.29637436  0.65877456    -0.39900
N1582       N  0.63102218  0.36138157  0.61915226    -0.37500
N1583       N  0.66205315  0.38923899  0.84703578    -0.38600
N1584       N  0.62202701  0.32139139  0.88568529    -0.40300
C1585       C  0.58405366  0.42644389  0.53374618    -0.05200
C1586       C  0.55993029  0.41420045  0.55007291     0.09000
C1587       C  0.55357484  0.41553830  0.59729656    -0.02600
C1588       C  0.57309871  0.42520942  0.62866614    -0.00800
C1589       C  0.59824665  0.43515242  0.61242427    -0.04500
C1590       C  0.60260958  0.43784565  0.56482433     0.02600
C1591       C  0.54439332  0.39583355  0.51877339     0.09400
C1592       C  0.52785942  0.40493198  0.61373946     0.35300
C1593       C  0.62668011  0.45161790  0.54782419     0.38700
C1594       C  0.54729564  0.36751040  0.52367757    -0.04800
C1595       C  0.53908720  0.35004983  0.48824335     0.02300
C1596       C  0.52940696  0.36084199  0.44620940    -0.04400
C1597       C  0.52284590  0.38884943  0.44417326    -0.00700
C1598       C  0.53023080  0.40624858  0.48064919    -0.03200
C1599       C  0.55998419  0.35624491  0.56435847     0.36000
C1600       C  0.50933279  0.40007475  0.40439929     0.39700
C1601       C  0.54053654  0.32096919  0.49605548     0.38800
C1602       C  0.52427437  0.43504683  0.47843669     0.35700
C1603       C  0.59105960  0.42509188  0.48541343     0.36400
C1604       C  0.56837799  0.42246387  0.67753341     0.39600
N1605       N  0.54186613  0.29802800  0.50435579    -0.38400
N1606       N  0.56983104  0.34719021  0.59691376    -0.40000
N1607       N  0.49833777  0.40903442  0.37281573    -0.37800
N1608       N  0.51948306  0.45803977  0.47690621    -0.40100
N1609       N  0.50736967  0.39635518  0.62681965    -0.39900
N1610       N  0.56480329  0.42012234  0.71655758    -0.37500
N1611       N  0.64558661  0.46292067  0.53388842    -0.38600
N1612       N  0.59671049  0.42378897  0.44693828    -0.40300
C1613       C  0.79903790  0.38915165  0.67746442    -0.05200
C1614       C  0.80737473  0.38316917  0.72255014     0.09000
C1615       C  0.79139349  0.39206015  0.75994937    -0.02600
C1616       C  0.76666450  0.40585791  0.75228506    -0.00800
C1617       C  0.75855097  0.41238122  0.70719396    -0.04500
C1618       C  0.77515016  0.40434405  0.66983646     0.02600
C1619       C  0.83288350  0.36726029  0.73092996     0.09400
C1620       C  0.80051113  0.38699191  0.80640441     0.35300
C1621       C  0.76817192  0.41237509  0.62349099     0.38700
C1622       C  0.85843736  0.38012397  0.72862135    -0.04800
C1623       C  0.88232574  0.36562175  0.73958572     0.02300
C1624       C  0.88070778  0.33840138  0.75532099    -0.04400
C1625       C  0.85501868  0.32537603  0.75632707    -0.00700
C1626       C  0.83135505  0.33962521  0.74336079    -0.03200
C1627       C  0.85992466  0.40883041  0.71765846     0.36000
C1628       C  0.85263035  0.29744059  0.77164903     0.39700
C1629       C  0.90829382  0.37949613  0.73733300     0.38800
C1630       C  0.80516229  0.32611651  0.74412232     0.35700
C1631       C  0.81486116  0.37929338  0.63887578     0.36400
C1632       C  0.74882947  0.41176120  0.79064329     0.39600
N1633       N  0.92896372  0.39063228  0.73523826    -0.38400
N1634       N  0.86103377  0.43179656  0.70941207    -0.40000
N1635       N  0.85040873  0.27525223  0.78421977    -0.37800
N1636       N  0.78422343  0.31544020  0.74472611    -0.40100
N1637       N  0.80796868  0.38306488  0.84339530    -0.39900
N1638       N  0.73443920  0.41595855  0.82125732    -0.37500
N1639       N  0.76288691  0.41891502  0.58648479    -0.38600
N1640       N  0.82734757  0.37129687  0.60802780    -0.40300
C1641       C  0.73230878  0.47851062  0.89693716    -0.05200
C1642       C  0.71617918  0.47021538  0.93424233     0.09000
C1643       C  0.68888576  0.46279121  0.92706932    -0.02600
C1644       C  0.67799110  0.46251973  0.88230533    -0.00800
C1645       C  0.69451006  0.46946973  0.84408626    -0.04500
C1646       C  0.72175724  0.47805097  0.85211831     0.02600
C1647       C  0.72886647  0.46737852  0.98051495     0.09400
C1648       C  0.67212584  0.45515145  0.96594889     0.35300
C1649       C  0.73984454  0.48529035  0.81463782     0.38700
C1650       C  0.72639340  0.48815832  0.01342799    -0.04800
C1651       C  0.73942217  0.48572517  0.05633542     0.02300
C1652       C  0.75581224  0.46268307  0.06615048    -0.04400
C1653       C  0.75854776  0.44212202  0.03219628    -0.00700
C1654       C  0.74466573  0.44426167  0.99021339    -0.03200
C1655       C  0.71033545  0.51206274  0.00295748     0.36000
C1656       C  0.77603400  0.41878790  0.03949277     0.39700
C1657       C  0.73500155  0.50664464  0.09056541     0.38800
C1658       C  0.74650536  0.42249893  0.95672466     0.35700
C1659       C  0.76016535  0.48704149  0.90482749     0.36400
C1660       C  0.64963552  0.45545513  0.87610955     0.39600
N1661       N  0.73136870  0.52335164  0.11781253    -0.38400
N1662       N  0.69751357  0.53110980  0.99449325    -0.40000
N1663       N  0.78983995  0.40008255  0.04528925    -0.37800
N1664       N  0.74783612  0.40510985  0.93012846    -0.40100
N1665       N  0.65878469  0.44918613  0.99708379    -0.39900
N1666       N  0.62701320  0.44978433  0.87121120    -0.37500
N1667       N  0.75458925  0.49113401  0.78526916    -0.38600
N1668       N  0.78233756  0.49383529  0.91122125    -0.40300
C1669       C  0.73196283  0.45772000  0.48134025    -0.05200
C1670       C  0.74730371  0.48175390  0.47726264     0.09000
C1671       C  0.74752932  0.50066870  0.51338046    -0.02600
C1672       C  0.73263735  0.49546373  0.55388206    -0.00800
C1673       C  0.71819704  0.47061021  0.55926642    -0.04500
C1674       C  0.71803480  0.45177920  0.52230618     0.02600
C1675       C  0.76309383  0.48659080  0.43426589     0.09400
C1676       C  0.76342643  0.52534390  0.50895830     0.35300
C1677       C  0.70500225  0.42543140  0.52655926     0.38700
C1678       C  0.75194164  0.50276388  0.39934742    -0.04800
C1679       C  0.76278864  0.50161343  0.35467608     0.02300
C1680       C  0.78494020  0.48407916  0.34455113    -0.04400
C1681       C  0.79736326  0.46949162  0.38079177    -0.00700
C1682       C  0.78678394  0.47132934  0.42566194    -0.03200
C1683       C  0.72845910  0.51968177  0.40901090     0.36000
C1684       C  0.81919750  0.45042171  0.37181379     0.39700
C1685       C  0.74996478  0.51753062  0.31892182     0.38800
C1686       C  0.79945318  0.45651443  0.46293058     0.35700
C1687       C  0.73075526  0.43883082  0.44312767     0.36400
C1688       C  0.73222141  0.51599222  0.58958014     0.39600
N1689       N  0.73911505  0.52991736  0.29068123    -0.38400
N1690       N  0.70984156  0.53331093  0.41672695    -0.40000
N1691       N  0.83640620  0.43484378  0.36545674    -0.37800
N1692       N  0.80956274  0.44488334  0.49283938    -0.40100
N1693       N  0.77613646  0.54500864  0.50543329    -0.39900
N1694       N  0.73197012  0.53238622  0.61801213    -0.37500
N1695       N  0.69487389  0.40429443  0.52968941    -0.38600
N1696       N  0.72975159  0.42383229  0.41265423    -0.40300
loop_ 
_geom_bond_atom_site_label_1 
_geom_bond_atom_site_label_2 
_geom_bond_distance 
_geom_bond_site_symmetry_2 
_ccdc_geom_bond_type 
O1           C16   1.254       .  A
O1           Al9   1.891       .  S
C2           O12   1.263       .  A
C2            O3   1.258       .  A
C2         C1645   1.501       .  S
O3           Al5   1.908       .  S
O4            C6   1.267       .  A
O4           Al5   1.911       .  S
Al5          O13   1.922       .  S
Al5          O15   1.903       .  S
Al5          O14   1.790       .  S
C6           O19   1.266       .  A
C6         C1617   1.488       .  S
O7           C17   1.258       .  A
O7           Al9   1.903       .  S
O8           C21   1.262       .  A
O8          Al18   1.901       .  S
Al9          O22   1.888       .  S
Al9          O19   1.915       .  S
Al9          O14   1.783       .  S
O10          C17   1.255       .  A
O10         Al18   1.893       .  S
O11          C20   1.266       .  A
O11         Al18   1.921       .  S
O12         Al18   1.915       .  S
O13          C20   1.268       .  A
O14         Al18   1.785       .  S
O15          C16   1.255       .  A
C16        C1673   1.498       .  S
C17        C1561   1.482       .  S
C20        C1540   1.495       .  S
C21          O22   1.260       .  A
C21        C1589   1.479       .  S
O23          C38   1.263       .  A
O23         Al31   1.871       .  S
C24          O34   1.258       .  A
C24          O25   1.266       .  A
C24        C1680   1.491       .  S
O25         Al27   1.927       .  S
O26          C28   1.255       .  A
O26         Al27   1.900       .  S
Al27         O35   1.876       .  S
Al27         O37   1.941       .  S
Al27         O36   1.783       .  S
C28          O41   1.257       .  A
C28        C1477   1.492       .  S
O29          C39   1.264       .  A
O29         Al31   1.890       .  S
O30          C43   1.260       .  A
O30         Al40   1.908       .  S
Al31         O44   1.915       .  S
Al31         O41   1.907       .  S
Al31         O36   1.778       .  S
O32          C39   1.273       .  A
O32         Al40   1.952       .  S
O33          C42   1.265       .  A
O33         Al40   1.940       .  S
O34         Al40   1.872       .  S
O35          C42   1.255       .  A
O36         Al40   1.779       .  S
O37          C38   1.271       .  A
C38        C1505   1.474       .  S
C39        C1456   1.484       .  S
C42        C1421   1.506       .  S
C43          O44   1.260       .  A
C43        C1652   1.500       .  S
O45          C60   1.256       .  A
O45         Al53   1.887       .  S
C46          O56   1.261       .  A
C46          O47   1.265       .  A
C46        C1372   1.478       .  S
O47         Al49   1.927       .  S
O48          C50   1.266       .  A
O48         Al49   1.910       .  S
Al49         O57   1.923   1_655  S
Al49         O59   1.906       .  S
Al49         O58   1.786       .  S
C50          O63   1.265       .  A
C50        C1484   1.502       .  S
O51          C61   1.258       .  A
O51         Al53   1.905       .  S
O52          C65   1.264       .  A
O52         Al62   1.902       .  S
Al53         O66   1.908       .  S
Al53         O63   1.905       .  S
Al53         O58   1.772       .  S
O54          C61   1.257       .  A
O54         Al62   1.897       .  S
O55          C64   1.261       .  A
O55         Al62   1.916   1_455  S
O56         Al62   1.890       .  S
O57          C64   1.265       .  A
O58         Al62   1.781       .  S
O59          C60   1.258       .  A
C60        C1393   1.503       .  S
C61        C1316   1.488       .  S
C64        C1281   1.504       .  S
C65          O66   1.265       .  A
C65        C1337   1.475       .  S
O67          C82   1.261       .  A
O67         Al75   1.872       .  S
C68          O78   1.259       .  A
C68          O69   1.264       .  A
C68        C1400   1.484       .  S
O69         Al71   1.920       .  S
O70          C72   1.258       .  A
O70         Al71   1.908       .  S
Al71         O79   1.882       .  S
Al71         O81   1.926       .  S
Al71         O80   1.784       .  S
C72          O85   1.256       .  A
C72        C1624   1.495       .  S
O73          C83   1.262       .  A
O73         Al75   1.886       .  S
O74          C87   1.262       .  A
O74         Al84   1.908       .  S
Al75         O88   1.910       .  S
Al75         O85   1.904       .  S
Al75         O80   1.782       .  S
O76          C83   1.270       .  A
O76         Al84   1.947       .  S
O77          C86   1.263       .  A
O77         Al84   1.936   1_455  S
O78         Al84   1.872       .  S
O79          C86   1.256   1_655  A
O80         Al84   1.785       .  S
O81          C82   1.267       .  A
C82        C1512   1.469       .  S
C83        C1260   1.492       .  S
C86        C1225   1.497       .  S
C87          O88   1.260       .  A
C87        C1365   1.487       .  S
O89         C104   1.263       .  A
O89         Al97   1.876       .  S
C90         O100   1.255       .  A
C90          O91   1.265       .  A
C90        C1197   1.470       .  S
O91         Al93   1.931       .  S
O92          C94   1.257       .  A
O92         Al93   1.898       .  S
Al93        O101   1.871   1_545  S
Al93        O103   1.936       .  S
Al93        O102   1.770       .  S
C94         O107   1.261       .  A
C94        C1120   1.496       .  S
O95         C105   1.264       .  A
O95         Al97   1.883       .  S
O96         C109   1.262   1_565  A
O96        Al106   1.912       .  S
Al97        O110   1.918       .  S
Al97        O107   1.930       .  S
Al97        O102   1.774       .  S
O98         C105   1.274       .  A
O98        Al106   1.952   1_545  S
O99         C108   1.267       .  A
O99        Al106   1.953       .  S
O100       Al106   1.865   1_545  S
O101        C108   1.255       .  A
O102       Al106   1.780   1_545  S
O103        C104   1.270       .  A
C104       C1148   1.481       .  S
C105       C1309   1.491       .  S
C108       C1092   1.498       .  S
C109        O110   1.262       .  A
C109       C1176   1.480       .  S
O111        C126   1.258       .  A
O111       Al119   1.888       .  S
C112        O122   1.267   1_565  A
C112        O113   1.267       .  A
C112       C1169   1.480       .  S
O113       Al115   1.921       .  S
O114        C116   1.261       .  A
O114       Al115   1.912   1_545  S
Al115       O123   1.917       .  S
Al115       O125   1.912       .  S
Al115       O124   1.800   1_565  S
C116        O129   1.256       .  A
C116       C1057   1.504       .  S
O117        C127   1.260       .  A
O117       Al119   1.913       .  S
O118        C131   1.269       .  A
O118       Al128   1.927       .  S
Al119       O132   1.896       .  S
Al119       O129   1.882       .  S
Al119       O124   1.783       .  S
O120        C127   1.258       .  A
O120       Al128   1.907       .  S
O121        C130   1.254       .  A
O121       Al128   1.890   1_565  S
O122       Al128   1.908       .  S
O123        C130   1.257       .  A
O124       Al128   1.789       .  S
O125        C126   1.261   1_565  A
C126       C1204   1.482   1_545  S
C127       C1253   1.500       .  S
C130       C1029   1.481       .  S
C131        O132   1.262       .  A
C131       C1344   1.503       .  S
O133        C148   1.272       .  A
O133       Al141   1.892       .  S
C134        O144   1.253       .  A
C134        O135   1.255       .  A
C134       C1001   1.501       .  S
O135       Al137   1.893       .  S
O136        C138   1.254       .  A
O136       Al137   1.909       .  S
Al137       O145   1.879       .  S
Al137       O147   1.923       .  S
Al137       O146   1.788       .  S
C138        O151   1.252       .  A
C138       C1064   1.503       .  S
O139        C149   1.272       .  A
O139       Al141   1.886       .  S
O140        C153   1.249       .  A
O140       Al150   1.905       .  S
Al141       O154   1.895       .  S
Al141       O151   1.904       .  S
Al141       O146   1.786       .  S
O142        C149   1.279       .  A
O142       Al150   1.945       .  S
O143        C152   1.265       .  A
O143       Al150   1.918       .  S
O144       Al150   1.884       .  S
O145        C152   1.258       .  A
O146       Al150   1.787       .  S
O147        C148   1.271       .  A
C148       C1141   1.483       .  S
C149       C1568   1.497       .  S
C152        C945   1.502       .  S
C153        O154   1.249       .  A
C153        C973   1.494       .  S
O155        C170   1.254       .  A
O155       Al163   1.877       .  S
C156        O166   1.268       .  A
C156        O157   1.266       .  A
C156        C980   1.485       .  S
O157       Al159   1.922       .  S
O158        C160   1.265       .  A
O158       Al159   1.917       .  S
Al159       O167   1.925       .  S
Al159       O169   1.904       .  S
Al159       O168   1.794       .  S
C160        O173   1.258       .  A
C160       C1113   1.515       .  S
O161        C171   1.256       .  A
O161       Al163   1.908       .  S
O162        C175   1.269       .  A
O162       Al172   1.918       .  S
Al163       O176   1.904       .  S
Al163       O173   1.886       .  S
Al163       O168   1.784       .  S
O164        C171   1.258       .  A
O164       Al172   1.914       .  S
O165        C174   1.259       .  A
O165       Al172   1.915       .  S
O166       Al172   1.917       .  S
O167        C174   1.260       .  A
O168       Al172   1.786       .  S
O169        C170   1.257       .  A
C170       C1008   1.482       .  S
C171       C1449   1.506       .  S
C174        C924   1.491       .  S
C175        O176   1.265       .  A
C175       C1596   1.496       .  S
O177        C192   1.263       .  A
O177       Al185   1.894       .  S
C178        O188   1.257       .  A
C178        O179   1.263       .  A
C178        C840   1.493       .  S
O179       Al181   1.922       .  S
O180        C182   1.263       .  A
O180       Al181   1.920       .  S
Al181       O189   1.878   1_565  S
Al181       O191   1.912       .  S
Al181       O190   1.791       .  S
C182        O195   1.258       .  A
C182        C777   1.498       .  S
O183        C193   1.265       .  A
O183       Al185   1.904       .  S
O184        C197   1.261       .  A
O184       Al194   1.906       .  S
Al185       O198   1.891       .  S
Al185       O195   1.900       .  S
Al185       O190   1.784       .  S
O186        C193   1.267       .  A
O186       Al194   1.922       .  S
O187        C196   1.264       .  A
O187       Al194   1.935   1_545  S
O188       Al194   1.871       .  S
O189        C196   1.256       .  A
O190       Al194   1.789       .  S
O191        C192   1.263       .  A
C192        C812   1.491       .  S
C193        C889   1.504       .  S
C196       C1288   1.484       .  S
C197        O198   1.257       .  A
C197        C861   1.492       .  S
O199        C214   1.255       .  A
O199       Al207   1.886       .  S
C200        O210   1.268       .  A
C200        O201   1.259       .  A
C200        C868   1.496       .  S
O201       Al203   1.903       .  S
O202        C204   1.263       .  A
O202       Al203   1.900       .  S
Al203       O211   1.916   1_565  S
Al203       O213   1.903       .  S
Al203       O212   1.787       .  S
C204        O217   1.264       .  A
C204        C693   1.482       .  S
O205        C215   1.256       .  A
O205       Al207   1.901       .  S
O206        C219   1.267       .  A
O206       Al216   1.929       .  S
Al207       O220   1.908       .  S
Al207       O217   1.914       .  S
Al207       O212   1.781       .  S
O208        C215   1.260       .  A
O208       Al216   1.911       .  S
O209        C218   1.263   1_565  A
O209       Al216   1.908       .  S
O210       Al216   1.928       .  S
O211        C218   1.265       .  A
O212       Al216   1.784       .  S
O213        C214   1.256       .  A
C214        C833   1.491       .  S
C215        C721   1.494       .  S
C218        C952   1.480       .  S
C219        O220   1.265       .  A
C219        C756   1.500       .  S
O221        C236   1.264       .  A
O221       Al229   1.876       .  S
C222        O232   1.257       .  A
C222        O223   1.265       .  A
C222        C665   1.493       .  S
O223       Al225   1.926       .  S
O224        C226   1.258       .  A
O224       Al225   1.909       .  S
Al225       O233   1.875       .  S
Al225       O235   1.937       .  S
Al225       O234   1.781       .  S
C226        O239   1.258       .  A
C226        C588   1.496       .  S
O227        C237   1.263       .  A
O227       Al229   1.887       .  S
O228        C241   1.259       .  A
O228       Al238   1.905       .  S
Al229       O242   1.916       .  S
Al229       O239   1.913       .  S
Al229       O234   1.780       .  S
O230        C237   1.273       .  A
O230       Al238   1.948       .  S
O231        C240   1.264       .  A
O231       Al238   1.939       .  S
O232       Al238   1.867       .  S
O233        C240   1.255       .  A
O234       Al238   1.778       .  S
O235        C236   1.271       .  A
C236        C609   1.482       .  S
C237        C728   1.486       .  S
C240       C1533   1.484       .  S
C241        O242   1.260       .  A
C241        C644   1.497       .  S
O243        C258   1.254       .  A
O243       Al251   1.882       .  S
C244        O254   1.264       .  A
C244        O245   1.261       .  A
C244        C637   1.502       .  S
O245       Al247   1.916       .  S
O246        C248   1.265       .  A
O246       Al247   1.908       .  S
Al247       O255   1.910       .  S
Al247       O257   1.914       .  S
Al247       O256   1.785       .  S
C248        O261   1.267       .  A
C248        C553   1.491       .  S
O249        C259   1.256       .  A
O249       Al251   1.889       .  S
O250        C263   1.265       .  A
O250       Al260   1.914       .  S
Al251       O264   1.900       .  S
Al251       O261   1.926       .  S
Al251       O256   1.775       .  S
O252        C259   1.262       .  A
O252       Al260   1.922       .  S
O253        C262   1.268       .  A
O253       Al260   1.935       .  S
O254       Al260   1.911       .  S
O255        C262   1.264       .  A
O256       Al260   1.784       .  S
O257        C258   1.259       .  A
C258        C672   1.489       .  S
C259        C896   1.482       .  S
C262       C1085   1.486       .  S
C263        O264   1.263       .  A
C263        C749   1.484       .  S
O265        C280   1.259       .  A
O265       Al273   1.895       .  S
C266        O276   1.267       .  A
C266        O267   1.260   1_455  A
C266        C504   1.488   1_455  S
O267       Al269   1.903       .  S
O268        C270   1.264       .  A
O268       Al269   1.914   1_455  S
Al269       O277   1.925       .  S
Al269       O279   1.902       .  S
Al269       O278   1.795   1_655  S
C270        O283   1.263       .  A
C270        C784   1.502       .  S
O271        C281   1.262       .  A
O271       Al273   1.915       .  S
O272        C285   1.268       .  A
O272       Al282   1.922       .  S
Al273       O286   1.905       .  S
Al273       O283   1.911       .  S
Al273       O278   1.782       .  S
O274        C281   1.257       .  A
O274       Al282   1.898       .  S
O275        C284   1.259       .  A
O275       Al282   1.894   1_655  S
O276       Al282   1.919       .  S
O277        C284   1.264       .  A
O278       Al282   1.784       .  S
O279        C280   1.257   1_655  A
C280        C525   1.478   1_455  S
C281        C448   1.498       .  S
C284       C1428   1.499       .  S
C285        O286   1.263       .  A
C285        C476   1.497       .  S
O287        C302   1.259       .  A
O287       Al295   1.874       .  S
C288        O298   1.257       .  A
C288        O289   1.265       .  A
C288        C532   1.473   1_455  S
O289       Al291   1.932       .  S
O290        C292   1.258       .  A
O290       Al291   1.895       .  S
Al291       O299   1.868   1_455  S
Al291       O301   1.940       .  S
Al291       O300   1.781       .  S
C292        O305   1.259       .  A
C292        C700   1.476       .  S
O293        C303   1.257       .  A
O293       Al295   1.872       .  S
O294        C307   1.260   1_655  A
O294       Al304   1.904       .  S
Al295       O308   1.913       .  S
Al295       O305   1.911       .  S
Al295       O300   1.769       .  S
O296        C303   1.271       .  A
O296       Al304   1.957   1_455  S
O297        C306   1.268       .  A
O297       Al304   1.946       .  S
O298       Al304   1.872   1_455  S
O299        C306   1.256       .  A
O300       Al304   1.783   1_455  S
O301        C302   1.268       .  A
C302        C805   1.483       .  S
C303        C413   1.498       .  S
C306       C1036   1.488       .  S
C307        O308   1.261       .  A
C307        C497   1.479       .  S
O309        C324   1.264       .  A
O309       Al317   1.883       .  S
C310        O320   1.255       .  A
C310        O311   1.262       .  A
C310        C385   1.467       .  S
O311       Al313   1.917       .  S
O312        C314   1.256       .  A
O312       Al313   1.896       .  S
Al313       O321   1.874       .  S
Al313       O323   1.919       .  S
Al313       O322   1.778       .  S
C314        O327   1.260       .  A
C314        C560   1.489       .  S
O315        C325   1.262       .  A
O315       Al317   1.880       .  S
O316        C329   1.263       .  A
O316       Al326   1.916       .  S
Al317       O330   1.925       .  S
Al317       O327   1.928       .  S
Al317       O322   1.777       .  S
O318        C325   1.275       .  A
O318       Al326   1.960       .  S
O319        C328   1.270       .  A
O319       Al326   1.965       .  S
O320       Al326   1.868       .  S
O321        C328   1.254       .  A
O322       Al326   1.783       .  S
O323        C324   1.266       .  A
C324        C616   1.475       .  S
C325        C441   1.498       .  S
C328        C917   1.502       .  S
C329        O330   1.262       .  A
C329        C357   1.486       .  S
O331        C346   1.259       .  A
O331       Al339   1.887       .  S
C332        O342   1.263       .  A
C332        O333   1.264       .  A
C332        C364   1.485       .  S
O333       Al335   1.919       .  S
O334        C336   1.264       .  A
O334       Al335   1.919       .  S
Al335       O343   1.917       .  S
Al335       O345   1.908       .  S
Al335       O344   1.800       .  S
C336        O349   1.258       .  A
C336        C581   1.507       .  S
O337        C347   1.260       .  A
O337       Al339   1.907       .  S
O338        C351   1.265       .  A
O338       Al348   1.918       .  S
Al339       O352   1.905       .  S
Al339       O349   1.893       .  S
Al339       O344   1.784       .  S
O340        C347   1.258       .  A
O340       Al348   1.901       .  S
O341        C350   1.258       .  A
O341       Al348   1.901       .  S
O342       Al348   1.906       .  S
O343        C350   1.260       .  A
O344       Al348   1.789       .  S
O345        C346   1.260       .  A
C346        C392   1.477       .  S
C347        C420   1.487       .  S
C350       C1232   1.487       .  S
C351        O352   1.261       .  A
C351        C469   1.501       .  S
C353        C354   1.411       .  A
C353        C358   1.413       .  A
C353        C371   1.450       .  S
C354        C359   1.503       .  S
C354        C355   1.413       .  A
C355        C356   1.415       .  A
C355        C360   1.450       .  S
C356        C357   1.411       .  A
C356        C372   1.450       .  S
C357        C358   1.415       .  A
C358        C361   1.451       .  S
C359        C362   1.412       .  A
C359        C366   1.413       .  A
C360        N377   1.157       .  T
C361        N379   1.157       .  T
C362        C363   1.415       .  A
C362        C367   1.449       .  S
C363        C364   1.412       .  A
C363        C369   1.449       .  S
C364        C365   1.413       .  A
C365        C366   1.412       .  A
C365        C368   1.452       .  S
C366        C370   1.450       .  S
C367        N374   1.157       .  T
C368        N375   1.157       .  T
C369        N373   1.157       .  T
C370        N376   1.157       .  T
C371        N380   1.157       .  T
C372        N378   1.157       .  T
C381        C382   1.411       .  A
C381        C386   1.406       .  A
C381        C399   1.451       .  S
C382        C387   1.490       .  S
C382        C383   1.412       .  A
C383        C384   1.409       .  A
C383        C388   1.449       .  S
C384        C385   1.408       .  A
C384        C400   1.451       .  S
C385        C386   1.410       .  A
C386        C389   1.453       .  S
C387        C390   1.409       .  A
C387        C394   1.411       .  A
C388        N405   1.157       .  T
C389        N407   1.157       .  T
C390        C391   1.409   1_554  A
C390        C395   1.451       .  S
C391        C392   1.414       .  A
C391        C397   1.451       .  S
C392        C393   1.410   1_556  A
C393        C394   1.407       .  A
C393        C396   1.450       .  S
C394        C398   1.451       .  S
C395        N402   1.157       .  T
C396        N403   1.157       .  T
C397        N401   1.157       .  T
C398        N404   1.157       .  T
C399        N408   1.157       .  T
C400        N406   1.157       .  T
C409        C410   1.406       .  A
C409        C414   1.409       .  A
C409        C427   1.452       .  S
C410        C415   1.497       .  S
C410        C411   1.411       .  A
C411        C412   1.414       .  A
C411        C416   1.451       .  S
C412        C413   1.418       .  A
C412        C428   1.450       .  S
C413        C414   1.424       .  A
C414        C417   1.453       .  S
C415        C418   1.411       .  A
C415        C422   1.410       .  A
C416        N433   1.157       .  T
C417        N435   1.158       .  T
C418        C419   1.412       .  A
C418        C423   1.451       .  S
C419        C420   1.416       .  A
C419        C425   1.451       .  S
C420        C421   1.416       .  A
C421        C422   1.409       .  A
C421        C424   1.451       .  S
C422        C426   1.451       .  S
C423        N430   1.157       .  T
C424        N431   1.157       .  T
C425        N429   1.157       .  T
C426        N432   1.157       .  T
C427        N436   1.157       .  T
C428        N434   1.157       .  T
C437        C438   1.411       .  A
C437        C442   1.415       .  A
C437        C455   1.450       .  S
C438        C443   1.500       .  S
C438        C439   1.408       .  A
C439        C440   1.411       .  A
C439        C444   1.452       .  S
C440        C441   1.422       .  A
C440        C456   1.452       .  S
C441        C442   1.418       .  A
C442        C445   1.450       .  S
C443        C446   1.408       .  A
C443        C450   1.410       .  A
C444        N461   1.157       .  T
C445        N463   1.157       .  T
C446        C447   1.411       .  A
C446        C451   1.452       .  S
C447        C448   1.421       .  A
C447        C453   1.452       .  S
C448        C449   1.420       .  A
C449        C450   1.415       .  A
C449        C452   1.451       .  S
C450        C454   1.450       .  S
C451        N458   1.157       .  T
C452        N459   1.158       .  T
C453        N457   1.157       .  T
C454        N460   1.157       .  T
C455        N464   1.157       .  T
C456        N462   1.157       .  T
C465        C466   1.410   1_556  A
C465        C470   1.417       .  A
C465        C483   1.449       .  S
C466        C471   1.499       .  S
C466        C467   1.408       .  A
C467        C468   1.408       .  A
C467        C472   1.454       .  S
C468        C469   1.422   1_554  A
C468        C484   1.452       .  S
C469        C470   1.420       .  A
C470        C473   1.450       .  S
C471        C474   1.411       .  A
C471        C478   1.409       .  A
C472        N489   1.157       .  T
C473        N491   1.157       .  T
C474        C475   1.417       .  A
C474        C479   1.450       .  S
C475        C476   1.419       .  A
C475        C481   1.450       .  S
C476        C477   1.421       .  A
C477        C478   1.409       .  A
C477        C480   1.451       .  S
C478        C482   1.454   1_554  S
C479        N486   1.157       .  T
C480        N487   1.157       .  T
C481        N485   1.157       .  T
C482        N488   1.157       .  T
C483        N492   1.157       .  T
C484        N490   1.157       .  T
C493        C494   1.412       .  A
C493        C498   1.412       .  A
C493        C511   1.449       .  S
C494        C499   1.499       .  S
C494        C495   1.413   1_655  A
C495        C496   1.411       .  A
C495        C500   1.451       .  S
C496        C497   1.411       .  A
C496        C512   1.451       .  S
C497        C498   1.411   1_455  A
C498        C501   1.451       .  S
C499        C502   1.409       .  A
C499        C506   1.412   1_655  A
C500        N517   1.157       .  T
C501        N519   1.157       .  T
C502        C503   1.412       .  A
C502        C507   1.451       .  S
C503        C504   1.418       .  A
C503        C509   1.451       .  S
C504        C505   1.414   1_655  A
C505        C506   1.412       .  A
C505        C508   1.451       .  S
C506        C510   1.450       .  S
C507        N514   1.157       .  T
C508        N515   1.157       .  T
C509        N513   1.157       .  T
C510        N516   1.157       .  T
C511        N520   1.157       .  T
C512        N518   1.157       .  T
C521        C522   1.411       .  A
C521        C526   1.409       .  A
C521        C539   1.450   1_554  S
C522        C527   1.490   1_554  S
C522        C523   1.408       .  A
C523        C524   1.408       .  A
C523        C528   1.451       .  S
C524        C525   1.414       .  A
C524        C540   1.449   1_655  S
C525        C526   1.411       .  A
C526        C529   1.450       .  S
C527        C530   1.411       .  A
C527        C534   1.411   1_655  A
C528        N545   1.157   1_655  T
C529        N547   1.157       .  T
C530        C531   1.412       .  A
C530        C535   1.449       .  S
C531        C532   1.412       .  A
C531        C537   1.450       .  S
C532        C533   1.410   1_655  A
C533        C534   1.404       .  A
C533        C536   1.452       .  S
C534        C538   1.452       .  S
C535        N542   1.157       .  T
C536        N543   1.157       .  T
C537        N541   1.157       .  T
C538        N544   1.157       .  T
C539        N548   1.157       .  T
C540        N546   1.156       .  T
C549        C550   1.412       .  A
C549        C554   1.413       .  A
C549        C567   1.450       .  S
C550        C555   1.502       .  S
C550        C551   1.411       .  A
C551        C552   1.413       .  A
C551        C556   1.450       .  S
C552        C553   1.415       .  A
C552        C568   1.451       .  S
C553        C554   1.414       .  A
C554        C557   1.449       .  S
C555        C558   1.413       .  A
C555        C562   1.410       .  A
C556        N573   1.157       .  T
C557        N575   1.157       .  T
C558        C559   1.415       .  A
C558        C563   1.450       .  S
C559        C560   1.413       .  A
C559        C565   1.450       .  S
C560        C561   1.416       .  A
C561        C562   1.411       .  A
C561        C564   1.451       .  S
C562        C566   1.451       .  S
C563        N570   1.157       .  T
C564        N571   1.157       .  T
C565        N569   1.157       .  T
C566        N572   1.157       .  T
C567        N576   1.157       .  T
C568        N574   1.157       .  T
C577        C578   1.406       .  A
C577        C582   1.412       .  A
C577        C595   1.452       .  S
C578        C583   1.501       .  S
C578        C579   1.410       .  A
C579        C580   1.415       .  A
C579        C584   1.451       .  S
C580        C581   1.420       .  A
C580        C596   1.449       .  S
C581        C582   1.427       .  A
C582        C585   1.453       .  S
C583        C586   1.410       .  A
C583        C590   1.409       .  A
C584        N601   1.157       .  T
C585        N603   1.158       .  T
C586        C587   1.414       .  A
C586        C591   1.450       .  S
C587        C588   1.419       .  A
C587        C593   1.450       .  S
C588        C589   1.419       .  A
C589        C590   1.412       .  A
C589        C592   1.451       .  S
C590        C594   1.451       .  S
C591        N598   1.157       .  T
C592        N599   1.157       .  T
C593        N597   1.157       .  T
C594        N600   1.157       .  T
C595        N604   1.157       .  T
C596        N602   1.157       .  T
C605        C606   1.406       .  A
C605        C610   1.407       .  A
C605        C623   1.451       .  S
C606        C611   1.485       .  S
C606        C607   1.408       .  A
C607        C608   1.408       .  A
C607        C612   1.451       .  S
C608        C609   1.415       .  A
C608        C624   1.449       .  S
C609        C610   1.416       .  A
C610        C613   1.451       .  S
C611        C614   1.408       .  A
C611        C618   1.411       .  A
C612        N629   1.157       .  T
C613        N631   1.157       .  T
C614        C615   1.412       .  A
C614        C619   1.449       .  S
C615        C616   1.416       .  A
C615        C621   1.451       .  S
C616        C617   1.413       .  A
C617        C618   1.400       .  A
C617        C620   1.453       .  S
C618        C622   1.454       .  S
C619        N626   1.157       .  T
C620        N627   1.157       .  T
C621        N625   1.158       .  T
C622        N628   1.157       .  T
C623        N632   1.157       .  T
C624        N630   1.157       .  T
C633        C634   1.410       .  A
C633        C638   1.414       .  A
C633        C651   1.450       .  S
C634        C639   1.498       .  S
C634        C635   1.407       .  A
C635        C636   1.408       .  A
C635        C640   1.453       .  S
C636        C637   1.426       .  A
C636        C652   1.452       .  S
C637        C638   1.420       .  A
C638        C641   1.451       .  S
C639        C642   1.409       .  A
C639        C646   1.409       .  A
C640        N657   1.157       .  T
C641        N659   1.157       .  T
C642        C643   1.408       .  A
C642        C647   1.451       .  S
C643        C644   1.420       .  A
C643        C649   1.452       .  S
C644        C645   1.421       .  A
C645        C646   1.413       .  A
C645        C648   1.451       .  S
C646        C650   1.451       .  S
C647        N654   1.157       .  T
C648        N655   1.157       .  T
C649        N653   1.157       .  T
C650        N656   1.157       .  T
C651        N660   1.157       .  T
C652        N658   1.158       .  T
C661        C662   1.410       .  A
C661        C666   1.411       .  A
C661        C679   1.451       .  S
C662        C667   1.491       .  S
C662        C663   1.406       .  A
C663        C664   1.406       .  A
C663        C668   1.452       .  S
C664        C665   1.422       .  A
C664        C680   1.453       .  S
C665        C666   1.418       .  A
C666        C669   1.450       .  S
C667        C670   1.409   1_556  A
C667        C674   1.409   1_556  A
C668        N685   1.157       .  T
C669        N687   1.157       .  T
C670        C671   1.411       .  A
C670        C675   1.450       .  S
C671        C672   1.418       .  A
C671        C677   1.451       .  S
C672        C673   1.420       .  A
C673        C674   1.406       .  A
C673        C676   1.452       .  S
C674        C678   1.454   1_554  S
C675        N682   1.157       .  T
C676        N683   1.157       .  T
C677        N681   1.157       .  T
C678        N684   1.157       .  T
C679        N688   1.157   1_556  T
C680        N686   1.157       .  T
C689        C690   1.408       .  A
C689        C694   1.408       .  A
C689        C707   1.452       .  S
C690        C695   1.492       .  S
C690        C691   1.410       .  A
C691        C692   1.411       .  A
C691        C696   1.450       .  S
C692        C693   1.414       .  A
C692        C708   1.450       .  S
C693        C694   1.414       .  A
C694        C697   1.449       .  S
C695        C698   1.410       .  A
C695        C702   1.411       .  A
C696        N713   1.157       .  T
C697        N715   1.156       .  T
C698        C699   1.407       .  A
C698        C703   1.451       .  S
C699        C700   1.413       .  A
C699        C705   1.452       .  S
C700        C701   1.412       .  A
C701        C702   1.411       .  A
C701        C704   1.450       .  S
C702        C706   1.450       .  S
C703        N710   1.157       .  T
C704        N711   1.157       .  T
C705        N709   1.157       .  T
C706        N712   1.157       .  T
C707        N716   1.157       .  T
C708        N714   1.157       .  T
C717        C718   1.413       .  A
C717        C722   1.416       .  A
C717        C735   1.450       .  S
C718        C723   1.501       .  S
C718        C719   1.409       .  A
C719        C720   1.408       .  A
C719        C724   1.452       .  S
C720        C721   1.415       .  A
C720        C736   1.448       .  S
C721        C722   1.417       .  A
C722        C725   1.449       .  S
C723        C726   1.414       .  A
C723        C730   1.412       .  A
C724        N741   1.157       .  T
C725        N743   1.157       .  T
C726        C727   1.411       .  A
C726        C731   1.451       .  S
C727        C728   1.414       .  A
C727        C733   1.452       .  S
C728        C729   1.415       .  A
C729        C730   1.412       .  A
C729        C732   1.451       .  S
C730        C734   1.451       .  S
C731        N738   1.157       .  T
C732        N739   1.157       .  T
C733        N737   1.157       .  T
C734        N740   1.157       .  T
C735        N744   1.157       .  T
C736        N742   1.156       .  T
C745        C746   1.415       .  A
C745        C750   1.407       .  A
C745        C763   1.451       .  S
C746        C751   1.508       .  S
C746        C747   1.417       .  A
C747        C748   1.417       .  A
C747        C752   1.450       .  S
C748        C749   1.413       .  A
C748        C764   1.450       .  S
C749        C750   1.410       .  A
C750        C753   1.451       .  S
C751        C754   1.413       .  A
C751        C758   1.416   1_554  A
C752        N769   1.157       .  T
C753        N771   1.157       .  T
C754        C755   1.408       .  A
C754        C759   1.452       .  S
C755        C756   1.415   1_554  A
C755        C761   1.449       .  S
C756        C757   1.415       .  A
C757        C758   1.419       .  A
C757        C760   1.448       .  S
C758        C762   1.450       .  S
C759        N766   1.157       .  T
C760        N767   1.157       .  T
C761        N765   1.156       .  T
C762        N768   1.157       .  T
C763        N772   1.157   1_554  T
C764        N770   1.157       .  T
C773        C774   1.415       .  A
C773        C778   1.418       .  A
C773        C791   1.450       .  S
C774        C779   1.505       .  S
C774        C775   1.409       .  A
C775        C776   1.409       .  A
C775        C780   1.453       .  S
C776        C777   1.421       .  A
C776        C792   1.450       .  S
C777        C778   1.415       .  A
C778        C781   1.450       .  S
C779        C782   1.410       .  A
C779        C786   1.413       .  A
C780        N797   1.157       .  T
C781        N799   1.157       .  T
C782        C783   1.412       .  A
C782        C787   1.452       .  S
C783        C784   1.420       .  A
C783        C789   1.450       .  S
C784        C785   1.419       .  A
C785        C786   1.415       .  A
C785        C788   1.451       .  S
C786        C790   1.451       .  S
C787        N794   1.157       .  T
C788        N795   1.157   1_455  T
C789        N793   1.157       .  T
C790        N796   1.157       .  T
C791        N800   1.157       .  T
C792        N798   1.156       .  T
C801        C802   1.411       .  A
C801        C806   1.402       .  A
C801        C819   1.454       .  S
C802        C807   1.493       .  S
C802        C803   1.411       .  A
C803        C804   1.415       .  A
C803        C808   1.449       .  S
C804        C805   1.415       .  A
C804        C820   1.450       .  S
C805        C806   1.416       .  A
C806        C809   1.454       .  S
C807        C810   1.408       .  A
C807        C814   1.409       .  A
C808        N825   1.157       .  T
C809        N827   1.157       .  T
C810        C811   1.411       .  A
C810        C815   1.451       .  S
C811        C812   1.421       .  A
C811        C817   1.452       .  S
C812        C813   1.417       .  A
C813        C814   1.408       .  A
C813        C816   1.451       .  S
C814        C818   1.451       .  S
C815        N822   1.157       .  T
C816        N823   1.157       .  T
C817        N821   1.158       .  T
C818        N824   1.157       .  T
C819        N828   1.157       .  T
C820        N826   1.157   1_455  T
C829        C830   1.407   1_545  A
C829        C834   1.411   1_544  A
C829        C847   1.451       .  S
C830        C835   1.489       .  S
C830        C831   1.408       .  A
C831        C832   1.405       .  A
C831        C836   1.453       .  S
C832        C833   1.420   1_554  A
C832        C848   1.452       .  S
C833        C834   1.420       .  A
C834        C837   1.451   1_565  S
C835        C838   1.409       .  A
C835        C842   1.406   1_565  A
C836        N853   1.157       .  T
C837        N855   1.158       .  T
C838        C839   1.411       .  A
C838        C843   1.450       .  S
C839        C840   1.419       .  A
C839        C845   1.450       .  S
C840        C841   1.421   1_565  A
C841        C842   1.405       .  A
C841        C844   1.453       .  S
C842        C846   1.453       .  S
C843        N850   1.157       .  T
C844        N851   1.158       .  T
C845        N849   1.158       .  T
C846        N852   1.157       .  T
C847        N856   1.157       .  T
C848        N854   1.157       .  T
C857        C858   1.408       .  A
C857        C862   1.408       .  A
C857        C875   1.452       .  S
C858        C863   1.498       .  S
C858        C859   1.413       .  A
C859        C860   1.413       .  A
C859        C864   1.450   1_565  S
C860        C861   1.415       .  A
C860        C876   1.451   1_565  S
C861        C862   1.422       .  A
C862        C865   1.453       .  S
C863        C866   1.412       .  A
C863        C870   1.408       .  A
C864        N881   1.157       .  T
C865        N883   1.157       .  T
C866        C867   1.415       .  A
C866        C871   1.450       .  S
C867        C868   1.416       .  A
C867        C873   1.450       .  S
C868        C869   1.424       .  A
C869        C870   1.407       .  A
C869        C872   1.452       .  S
C870        C874   1.455       .  S
C871        N878   1.157       .  T
C872        N879   1.157       .  T
C873        N877   1.157       .  T
C874        N880   1.157       .  T
C875        N884   1.157       .  T
C876        N882   1.157       .  T
C885        C886   1.408       .  A
C885        C890   1.411       .  A
C885        C903   1.452       .  S
C886        C891   1.503       .  S
C886        C887   1.411       .  A
C887        C888   1.416       .  A
C887        C892   1.451       .  S
C888        C889   1.421       .  A
C888        C904   1.451       .  S
C889        C890   1.423       .  A
C890        C893   1.452       .  S
C891        C894   1.415       .  A
C891        C898   1.412       .  A
C892        N909   1.157       .  T
C893        N911   1.157       .  T
C894        C895   1.414       .  A
C894        C899   1.449       .  S
C895        C896   1.409       .  A
C895        C901   1.450       .  S
C896        C897   1.414       .  A
C897        C898   1.411       .  A
C897        C900   1.452       .  S
C898        C902   1.451       .  S
C899        N906   1.157       .  T
C900        N907   1.157       .  T
C901        N905   1.157       .  T
C902        N908   1.157       .  T
C903        N912   1.157       .  T
C904        N910   1.158       .  T
C913        C914   1.415       .  A
C913        C918   1.423       .  A
C913        C931   1.448       .  S
C914        C919   1.510       .  S
C914        C915   1.410       .  A
C915        C916   1.411       .  A
C915        C920   1.453       .  S
C916        C917   1.421       .  A
C916        C932   1.452       .  S
C917        C918   1.415       .  A
C918        C921   1.449       .  S
C919        C922   1.415       .  A
C919        C926   1.414       .  A
C920        N937   1.157       .  T
C921        N939   1.157       .  T
C922        C923   1.417       .  A
C922        C927   1.449       .  S
C923        C924   1.410       .  A
C923        C929   1.449       .  S
C924        C925   1.411       .  A
C925        C926   1.415       .  A
C925        C928   1.449       .  S
C926        C930   1.450       .  S
C927        N934   1.157       .  T
C928        N935   1.157       .  T
C929        N933   1.157       .  T
C930        N936   1.157       .  T
C931        N940   1.157       .  T
C932        N938   1.157       .  T
C941        C942   1.409       .  A
C941        C946   1.416       .  A
C941        C959   1.449       .  S
C942        C947   1.498       .  S
C942        C943   1.408       .  A
C943        C944   1.408       .  A
C943        C948   1.455       .  S
C944        C945   1.425       .  A
C944        C960   1.452       .  S
C945        C946   1.421       .  A
C946        C949   1.450       .  S
C947        C950   1.411       .  A
C947        C954   1.413       .  A
C948        N965   1.157       .  T
C949        N967   1.157       .  T
C950        C951   1.409       .  A
C950        C955   1.451       .  S
C951        C952   1.413       .  A
C951        C957   1.452       .  S
C952        C953   1.411       .  A
C953        C954   1.413       .  A
C953        C956   1.451       .  S
C954        C958   1.449       .  S
C955        N962   1.157       .  T
C956        N963   1.157       .  T
C957        N961   1.157       .  T
C958        N964   1.157       .  T
C959        N968   1.157       .  T
C960        N966   1.157       .  T
C969        C970   1.411       .  A
C969        C974   1.411   1_554  A
C969        C987   1.452       .  S
C970        C975   1.506       .  S
C970        C971   1.414       .  A
C971        C972   1.416   1_554  A
C971        C976   1.450       .  S
C972        C973   1.415       .  A
C972        C988   1.450       .  S
C973        C974   1.418       .  A
C974        C977   1.451       .  S
C975        C978   1.415       .  A
C975        C982   1.413       .  A
C976        N993   1.157       .  T
C977        N995   1.157       .  T
C978        C979   1.417       .  A
C978        C983   1.449       .  S
C979        C980   1.411       .  A
C979        C985   1.449       .  S
C980        C981   1.410       .  A
C981        C982   1.409       .  A
C981        C984   1.446       .  S
C982        C986   1.452       .  S
C983        N990   1.157       .  T
C984        N991   1.155       .  T
C985        N989   1.157       .  T
C986        N992   1.157       .  T
C987        N996   1.157       .  T
C988        N994   1.157       .  T
C997        C998   1.407       .  A
C997       C1002   1.410       .  A
C997       C1015   1.453       .  S
C998       C1003   1.494       .  S
C998        C999   1.408       .  A
C999       C1000   1.411       .  A
C999       C1004   1.451       .  S
C1000      C1001   1.422       .  A
C1000      C1016   1.451       .  S
C1001      C1002   1.424       .  A
C1002      C1005   1.452       .  S
C1003      C1006   1.410       .  A
C1003      C1010   1.411       .  A
C1004      N1021   1.157       .  T
C1005      N1023   1.158       .  T
C1006      C1007   1.406       .  A
C1006      C1011   1.452       .  S
C1007      C1008   1.414       .  A
C1007      C1013   1.450       .  S
C1008      C1009   1.414       .  A
C1009      C1010   1.412       .  A
C1009      C1012   1.450       .  S
C1010      C1014   1.450       .  S
C1011      N1018   1.157       .  T
C1012      N1019   1.157       .  T
C1013      N1017   1.156       .  T
C1014      N1020   1.157       .  T
C1015      N1024   1.157       .  T
C1016      N1022   1.157       .  T
C1025      C1026   1.412       .  A
C1025      C1030   1.414       .  A
C1025      C1043   1.449       .  S
C1026      C1031   1.498       .  S
C1026      C1027   1.411       .  A
C1027      C1028   1.410       .  A
C1027      C1032   1.451       .  S
C1028      C1029   1.411       .  A
C1028      C1044   1.449       .  S
C1029      C1030   1.411       .  A
C1030      C1033   1.449       .  S
C1031      C1034   1.411       .  A
C1031      C1038   1.410       .  A
C1032      N1049   1.157       .  T
C1033      N1051   1.157       .  T
C1034      C1035   1.416       .  A
C1034      C1039   1.448       .  S
C1035      C1036   1.414       .  A
C1035      C1041   1.449       .  S
C1036      C1037   1.417       .  A
C1037      C1038   1.407       .  A
C1037      C1040   1.453       .  S
C1038      C1042   1.453       .  S
C1039      N1046   1.157       .  T
C1040      N1047   1.158       .  T
C1041      N1045   1.157       .  T
C1042      N1048   1.157       .  T
C1043      N1052   1.157       .  T
C1044      N1050   1.157       .  T
C1053      C1054   1.411       .  A
C1053      C1058   1.416       .  A
C1053      C1071   1.451       .  S
C1054      C1059   1.500       .  S
C1054      C1055   1.406       .  A
C1055      C1056   1.409       .  A
C1055      C1060   1.452       .  S
C1056      C1057   1.425       .  A
C1056      C1072   1.453       .  S
C1057      C1058   1.421       .  A
C1058      C1061   1.451       .  S
C1059      C1062   1.408       .  A
C1059      C1066   1.410       .  A
C1060      N1077   1.157       .  T
C1061      N1079   1.158       .  T
C1062      C1063   1.412       .  A
C1062      C1067   1.451       .  S
C1063      C1064   1.424       .  A
C1063      C1069   1.452       .  S
C1064      C1065   1.421       .  A
C1065      C1066   1.413       .  A
C1065      C1068   1.451       .  S
C1066      C1070   1.452       .  S
C1067      N1074   1.157       .  T
C1068      N1075   1.158       .  T
C1069      N1073   1.158       .  T
C1070      N1076   1.157       .  T
C1071      N1080   1.157       .  T
C1072      N1078   1.158       .  T
C1081      C1082   1.412       .  A
C1081      C1086   1.414       .  A
C1081      C1099   1.449       .  S
C1082      C1087   1.504       .  S
C1082      C1083   1.413       .  A
C1083      C1084   1.413       .  A
C1083      C1088   1.450       .  S
C1084      C1085   1.412       .  A
C1084      C1100   1.450       .  S
C1085      C1086   1.411       .  A
C1086      C1089   1.449       .  S
C1087      C1090   1.410       .  A
C1087      C1094   1.414       .  A
C1088      N1105   1.157       .  T
C1089      N1107   1.157       .  T
C1090      C1091   1.406       .  A
C1090      C1095   1.453       .  S
C1091      C1092   1.420       .  A
C1091      C1097   1.453       .  S
C1092      C1093   1.416       .  A
C1093      C1094   1.421       .  A
C1093      C1096   1.449       .  S
C1094      C1098   1.448       .  S
C1095      N1102   1.157       .  T
C1096      N1103   1.157       .  T
C1097      N1101   1.157       .  T
C1098      N1104   1.157       .  T
C1099      N1108   1.157       .  T
C1100      N1106   1.157       .  T
C1109      C1110   1.406       .  A
C1109      C1114   1.410       .  A
C1109      C1127   1.455       .  S
C1110      C1115   1.502       .  S
C1110      C1111   1.410       .  A
C1111      C1112   1.416       .  A
C1111      C1116   1.451       .  S
C1112      C1113   1.426       .  A
C1112      C1128   1.451       .  S
C1113      C1114   1.431       .  A
C1114      C1117   1.452       .  S
C1115      C1118   1.409       .  A
C1115      C1122   1.412       .  A
C1116      N1133   1.157       .  T
C1117      N1135   1.158       .  T
C1118      C1119   1.411       .  A
C1118      C1123   1.452       .  S
C1119      C1120   1.421       .  A
C1119      C1125   1.451       .  S
C1120      C1121   1.417       .  A
C1121      C1122   1.413       .  A
C1121      C1124   1.450       .  S
C1122      C1126   1.451       .  S
C1123      N1130   1.157       .  T
C1124      N1131   1.157       .  T
C1125      N1129   1.157       .  T
C1126      N1132   1.157       .  T
C1127      N1136   1.157       .  T
C1128      N1134   1.158       .  T
C1137      C1138   1.408       .  A
C1137      C1142   1.405       .  A
C1137      C1155   1.450   1_556  S
C1138      C1143   1.486   1_556  S
C1138      C1139   1.407       .  A
C1139      C1140   1.408       .  A
C1139      C1144   1.451       .  S
C1140      C1141   1.419       .  A
C1140      C1156   1.450       .  S
C1141      C1142   1.411       .  A
C1142      C1145   1.449       .  S
C1143      C1146   1.408       .  A
C1143      C1150   1.411       .  A
C1144      N1161   1.157       .  T
C1145      N1163   1.156       .  T
C1146      C1147   1.412       .  A
C1146      C1151   1.449       .  S
C1147      C1148   1.417       .  A
C1147      C1153   1.451       .  S
C1148      C1149   1.416       .  A
C1149      C1150   1.401       .  A
C1149      C1152   1.454       .  S
C1150      C1154   1.455   1_554  S
C1151      N1158   1.157       .  T
C1152      N1159   1.157       .  T
C1153      N1157   1.158   1_545  T
C1154      N1160   1.158       .  T
C1155      N1164   1.158       .  T
C1156      N1162   1.158       .  T
C1165      C1166   1.412       .  A
C1165      C1170   1.414       .  A
C1165      C1183   1.449       .  S
C1166      C1171   1.497       .  S
C1166      C1167   1.411   1_565  A
C1167      C1168   1.408       .  A
C1167      C1172   1.451       .  S
C1168      C1169   1.410   1_545  A
C1168      C1184   1.448       .  S
C1169      C1170   1.411       .  A
C1170      C1173   1.449       .  S
C1171      C1174   1.409   1_566  A
C1171      C1178   1.414       .  A
C1172      N1189   1.157       .  T
C1173      N1191   1.157       .  T
C1174      C1175   1.408       .  A
C1174      C1179   1.451   1_554  S
C1175      C1176   1.413       .  A
C1175      C1181   1.451       .  S
C1176      C1177   1.410   1_545  A
C1177      C1178   1.414   1_554  A
C1177      C1180   1.450       .  S
C1178      C1182   1.450       .  S
C1179      N1186   1.157       .  T
C1180      N1187   1.157       .  T
C1181      N1185   1.157       .  T
C1182      N1188   1.157       .  T
C1183      N1192   1.157       .  T
C1184      N1190   1.156       .  T
C1193      C1194   1.412   1_545  A
C1193      C1198   1.407       .  A
C1193      C1211   1.451       .  S
C1194      C1199   1.493       .  S
C1194      C1195   1.411       .  A
C1195      C1196   1.411       .  A
C1195      C1200   1.450       .  S
C1196      C1197   1.411   1_565  A
C1196      C1212   1.451       .  S
C1197      C1198   1.409       .  A
C1198      C1201   1.452       .  S
C1199      C1202   1.410       .  A
C1199      C1206   1.410       .  A
C1200      N1217   1.157       .  T
C1201      N1219   1.157       .  T
C1202      C1203   1.412       .  A
C1202      C1207   1.450       .  S
C1203      C1204   1.415       .  A
C1203      C1209   1.451   1_565  S
C1204      C1205   1.412       .  A
C1205      C1206   1.409       .  A
C1205      C1208   1.450       .  S
C1206      C1210   1.451       .  S
C1207      N1214   1.157       .  T
C1208      N1215   1.157       .  T
C1209      N1213   1.157       .  T
C1210      N1216   1.157       .  T
C1211      N1220   1.157       .  T
C1212      N1218   1.157       .  T
C1221      C1222   1.412       .  A
C1221      C1226   1.419       .  A
C1221      C1239   1.449       .  S
C1222      C1227   1.501       .  S
C1222      C1223   1.410       .  A
C1223      C1224   1.409       .  A
C1223      C1228   1.453       .  S
C1224      C1225   1.419       .  A
C1224      C1240   1.452       .  S
C1225      C1226   1.416       .  A
C1226      C1229   1.449       .  S
C1227      C1230   1.413       .  A
C1227      C1234   1.410       .  A
C1228      N1245   1.157       .  T
C1229      N1247   1.157       .  T
C1230      C1231   1.417       .  A
C1230      C1235   1.448       .  S
C1231      C1232   1.412       .  A
C1231      C1237   1.449       .  S
C1232      C1233   1.413       .  A
C1233      C1234   1.409       .  A
C1233      C1236   1.448       .  S
C1234      C1238   1.451       .  S
C1235      N1242   1.157       .  T
C1236      N1243   1.157       .  T
C1237      N1241   1.157       .  T
C1238      N1244   1.157       .  T
C1239      N1248   1.157       .  T
C1240      N1246   1.157       .  T
C1249      C1250   1.412       .  A
C1249      C1254   1.416       .  A
C1249      C1267   1.450       .  S
C1250      C1255   1.502       .  S
C1250      C1251   1.408       .  A
C1251      C1252   1.410       .  A
C1251      C1256   1.453       .  S
C1252      C1253   1.423       .  A
C1252      C1268   1.451       .  S
C1253      C1254   1.417       .  A
C1254      C1257   1.449       .  S
C1255      C1258   1.413       .  A
C1255      C1262   1.411       .  A
C1256      N1273   1.157       .  T
C1257      N1275   1.157       .  T
C1258      C1259   1.413       .  A
C1258      C1263   1.451       .  S
C1259      C1260   1.416       .  A
C1259      C1265   1.450       .  S
C1260      C1261   1.416       .  A
C1261      C1262   1.412       .  A
C1261      C1264   1.451       .  S
C1262      C1266   1.450       .  S
C1263      N1270   1.157       .  T
C1264      N1271   1.157       .  T
C1265      N1269   1.158       .  T
C1266      N1272   1.157       .  T
C1267      N1276   1.157       .  T
C1268      N1274   1.157       .  T
C1277      C1278   1.408       .  A
C1277      C1282   1.417       .  A
C1277      C1295   1.450       .  S
C1278      C1283   1.499       .  S
C1278      C1279   1.408       .  A
C1279      C1280   1.408       .  A
C1279      C1284   1.455       .  S
C1280      C1281   1.425       .  A
C1280      C1296   1.452       .  S
C1281      C1282   1.421       .  A
C1282      C1285   1.448       .  S
C1283      C1286   1.411       .  A
C1283      C1290   1.411       .  A
C1284      N1301   1.157       .  T
C1285      N1303   1.157       .  T
C1286      C1287   1.411       .  A
C1286      C1291   1.450       .  S
C1287      C1288   1.412       .  A
C1287      C1293   1.450       .  S
C1288      C1289   1.413       .  A
C1289      C1290   1.413       .  A
C1289      C1292   1.449       .  S
C1290      C1294   1.450       .  S
C1291      N1298   1.157       .  T
C1292      N1299   1.157       .  T
C1293      N1297   1.157       .  T
C1294      N1300   1.157       .  T
C1295      N1304   1.157       .  T
C1296      N1302   1.158       .  T
C1305      C1306   1.409       .  A
C1305      C1310   1.409       .  A
C1305      C1323   1.452       .  S
C1306      C1311   1.497       .  S
C1306      C1307   1.411       .  A
C1307      C1308   1.412       .  A
C1307      C1312   1.451       .  S
C1308      C1309   1.417       .  A
C1308      C1324   1.451       .  S
C1309      C1310   1.419       .  A
C1310      C1313   1.452       .  S
C1311      C1314   1.412       .  A
C1311      C1318   1.410       .  A
C1312      N1329   1.157       .  T
C1313      N1331   1.157       .  T
C1314      C1315   1.412       .  A
C1314      C1319   1.451       .  S
C1315      C1316   1.417       .  A
C1315      C1321   1.451       .  S
C1316      C1317   1.416       .  A
C1317      C1318   1.408       .  A
C1317      C1320   1.452       .  S
C1318      C1322   1.451       .  S
C1319      N1326   1.157       .  T
C1320      N1327   1.157       .  T
C1321      N1325   1.157       .  T
C1322      N1328   1.157       .  T
C1323      N1332   1.157       .  T
C1324      N1330   1.157       .  T
C1333      C1334   1.413       .  A
C1333      C1338   1.410       .  A
C1333      C1351   1.450       .  S
C1334      C1339   1.496       .  S
C1334      C1335   1.412       .  A
C1335      C1336   1.409       .  A
C1335      C1340   1.451       .  S
C1336      C1337   1.410       .  A
C1336      C1352   1.451       .  S
C1337      C1338   1.411       .  A
C1338      C1341   1.451       .  S
C1339      C1342   1.409       .  A
C1339      C1346   1.408       .  A
C1340      N1357   1.157       .  T
C1341      N1359   1.157       .  T
C1342      C1343   1.416       .  A
C1342      C1347   1.450       .  S
C1343      C1344   1.422       .  A
C1343      C1349   1.450       .  S
C1344      C1345   1.426       .  A
C1345      C1346   1.404       .  A
C1345      C1348   1.454       .  S
C1346      C1350   1.456       .  S
C1347      N1354   1.157       .  T
C1348      N1355   1.158       .  T
C1349      N1353   1.158   1_545  T
C1350      N1356   1.158       .  T
C1351      N1360   1.157       .  T
C1352      N1358   1.157       .  T
C1361      C1362   1.412       .  A
C1361      C1366   1.407   1_554  A
C1361      C1379   1.453       .  S
C1362      C1367   1.501       .  S
C1362      C1363   1.414       .  A
C1363      C1364   1.414   1_554  A
C1363      C1368   1.450   1_655  S
C1364      C1365   1.414       .  A
C1364      C1380   1.451       .  S
C1365      C1366   1.416       .  A
C1366      C1369   1.451       .  S
C1367      C1370   1.414   1_655  A
C1367      C1374   1.415       .  A
C1368      N1385   1.157       .  T
C1369      N1387   1.157       .  T
C1370      C1371   1.412       .  A
C1370      C1375   1.450       .  S
C1371      C1372   1.411   1_455  A
C1371      C1377   1.450       .  S
C1372      C1373   1.411       .  A
C1373      C1374   1.407       .  A
C1373      C1376   1.453       .  S
C1374      C1378   1.452       .  S
C1375      N1382   1.157       .  T
C1376      N1383   1.157       .  T
C1377      N1381   1.157       .  T
C1378      N1384   1.157       .  T
C1379      N1388   1.157       .  T
C1380      N1386   1.157   1_655  T
C1389      C1390   1.406       .  A
C1389      C1394   1.407       .  A
C1389      C1407   1.454       .  S
C1390      C1395   1.489       .  S
C1390      C1391   1.404   1_655  A
C1391      C1392   1.410       .  A
C1391      C1396   1.452       .  S
C1392      C1393   1.427   1_455  A
C1392      C1408   1.450       .  S
C1393      C1394   1.426       .  A
C1394      C1397   1.453       .  S
C1395      C1398   1.407   1_655  A
C1395      C1402   1.409       .  A
C1396      N1413   1.157       .  T
C1397      N1415   1.158       .  T
C1398      C1399   1.406       .  A
C1398      C1403   1.451       .  S
C1399      C1400   1.417   1_455  A
C1399      C1405   1.452       .  S
C1400      C1401   1.416       .  A
C1401      C1402   1.408       .  A
C1401      C1404   1.450       .  S
C1402      C1406   1.452       .  S
C1403      N1410   1.157       .  T
C1404      N1411   1.157       .  T
C1405      N1409   1.157       .  T
C1406      N1412   1.157       .  T
C1407      N1416   1.157       .  T
C1408      N1414   1.157       .  T
C1417      C1418   1.408       .  A
C1417      C1422   1.411       .  A
C1417      C1435   1.452       .  S
C1418      C1423   1.501       .  S
C1418      C1419   1.409       .  A
C1419      C1420   1.417       .  A
C1419      C1424   1.450       .  S
C1420      C1421   1.421       .  A
C1420      C1436   1.447       .  S
C1421      C1422   1.422       .  A
C1422      C1425   1.451       .  S
C1423      C1426   1.411       .  A
C1423      C1430   1.408       .  A
C1424      N1441   1.157       .  T
C1425      N1443   1.157       .  T
C1426      C1427   1.418       .  A
C1426      C1431   1.449       .  S
C1427      C1428   1.418       .  A
C1427      C1433   1.449       .  S
C1428      C1429   1.421       .  A
C1429      C1430   1.408       .  A
C1429      C1432   1.452       .  S
C1430      C1434   1.452       .  S
C1431      N1438   1.157       .  T
C1432      N1439   1.157       .  T
C1433      N1437   1.157       .  T
C1434      N1440   1.157       .  T
C1435      N1444   1.157       .  T
C1436      N1442   1.156       .  T
C1445      C1446   1.410       .  A
C1445      C1450   1.417       .  A
C1445      C1463   1.451       .  S
C1446      C1451   1.502       .  S
C1446      C1447   1.407       .  A
C1447      C1448   1.413       .  A
C1447      C1452   1.452       .  S
C1448      C1449   1.424       .  A
C1448      C1464   1.451       .  S
C1449      C1450   1.422       .  A
C1450      C1453   1.449       .  S
C1451      C1454   1.412       .  A
C1451      C1458   1.413       .  A
C1452      N1469   1.157       .  T
C1453      N1471   1.157       .  T
C1454      C1455   1.412       .  A
C1454      C1459   1.450       .  S
C1455      C1456   1.413       .  A
C1455      C1461   1.451       .  S
C1456      C1457   1.413       .  A
C1457      C1458   1.413       .  A
C1457      C1460   1.451       .  S
C1458      C1462   1.449       .  S
C1459      N1466   1.157       .  T
C1460      N1467   1.157       .  T
C1461      N1465   1.157       .  T
C1462      N1468   1.157       .  T
C1463      N1472   1.157       .  T
C1464      N1470   1.157       .  T
C1473      C1474   1.409       .  A
C1473      C1478   1.411       .  A
C1473      C1491   1.450       .  S
C1474      C1479   1.496       .  S
C1474      C1475   1.409       .  A
C1475      C1476   1.412       .  A
C1475      C1480   1.451       .  S
C1476      C1477   1.419       .  A
C1476      C1492   1.451       .  S
C1477      C1478   1.417       .  A
C1478      C1481   1.452       .  S
C1479      C1482   1.410       .  A
C1479      C1486   1.406       .  A
C1480      N1497   1.157       .  T
C1481      N1499   1.157       .  T
C1482      C1483   1.413       .  A
C1482      C1487   1.452       .  S
C1483      C1484   1.420       .  A
C1483      C1489   1.449       .  S
C1484      C1485   1.423       .  A
C1485      C1486   1.410       .  A
C1485      C1488   1.453       .  S
C1486      C1490   1.451       .  S
C1487      N1494   1.157       .  T
C1488      N1495   1.158       .  T
C1489      N1493   1.157       .  T
C1490      N1496   1.157       .  T
C1491      N1500   1.157       .  T
C1492      N1498   1.157       .  T
C1501      C1502   1.410       .  A
C1501      C1506   1.406       .  A
C1501      C1519   1.450   1_554  S
C1502      C1507   1.490   1_554  S
C1502      C1503   1.412       .  A
C1503      C1504   1.409       .  A
C1503      C1508   1.451       .  S
C1504      C1505   1.411       .  A
C1504      C1520   1.449       .  S
C1505      C1506   1.412       .  A
C1506      C1509   1.452       .  S
C1507      C1510   1.412       .  A
C1507      C1514   1.413       .  A
C1508      N1525   1.157       .  T
C1509      N1527   1.157       .  T
C1510      C1511   1.412       .  A
C1510      C1515   1.449       .  S
C1511      C1512   1.411       .  A
C1511      C1517   1.450       .  S
C1512      C1513   1.409       .  A
C1513      C1514   1.401       .  A
C1513      C1516   1.454       .  S
C1514      C1518   1.451       .  S
C1515      N1522   1.157   1_556  T
C1516      N1523   1.157       .  T
C1517      N1521   1.157       .  T
C1518      N1524   1.157       .  T
C1519      N1528   1.157       .  T
C1520      N1526   1.156       .  T
C1529      C1530   1.414       .  A
C1529      C1534   1.416       .  A
C1529      C1547   1.449       .  S
C1530      C1535   1.502       .  S
C1530      C1531   1.411       .  A
C1531      C1532   1.411       .  A
C1531      C1536   1.451       .  S
C1532      C1533   1.413       .  A
C1532      C1548   1.451       .  S
C1533      C1534   1.410       .  A
C1534      C1537   1.449       .  S
C1535      C1538   1.412       .  A
C1535      C1542   1.409       .  A
C1536      N1553   1.157       .  T
C1537      N1555   1.157       .  T
C1538      C1539   1.419       .  A
C1538      C1543   1.449       .  S
C1539      C1540   1.417       .  A
C1539      C1545   1.450       .  S
C1540      C1541   1.418       .  A
C1541      C1542   1.409       .  A
C1541      C1544   1.449       .  S
C1542      C1546   1.454       .  S
C1543      N1550   1.157       .  T
C1544      N1551   1.157       .  T
C1545      N1549   1.157       .  T
C1546      N1552   1.157       .  T
C1547      N1556   1.157       .  T
C1548      N1554   1.157       .  T
C1557      C1558   1.413       .  A
C1557      C1562   1.413       .  A
C1557      C1575   1.450       .  S
C1558      C1563   1.500       .  S
C1558      C1559   1.412       .  A
C1559      C1560   1.410       .  A
C1559      C1564   1.452       .  S
C1560      C1561   1.414       .  A
C1560      C1576   1.451       .  S
C1561      C1562   1.411       .  A
C1562      C1565   1.450       .  S
C1563      C1566   1.412       .  A
C1563      C1570   1.408       .  A
C1564      N1581   1.157       .  T
C1565      N1583   1.157       .  T
C1566      C1567   1.414       .  A
C1566      C1571   1.451       .  S
C1567      C1568   1.419       .  A
C1567      C1573   1.451       .  S
C1568      C1569   1.420       .  A
C1569      C1570   1.409       .  A
C1569      C1572   1.451       .  S
C1570      C1574   1.452       .  S
C1571      N1578   1.157       .  T
C1572      N1579   1.157       .  T
C1573      N1577   1.158       .  T
C1574      N1580   1.157       .  T
C1575      N1584   1.157       .  T
C1576      N1582   1.157       .  T
C1585      C1586   1.413       .  A
C1585      C1590   1.406       .  A
C1585      C1603   1.452       .  S
C1586      C1591   1.497       .  S
C1586      C1587   1.413       .  A
C1587      C1588   1.412       .  A
C1587      C1592   1.450       .  S
C1588      C1589   1.412       .  A
C1588      C1604   1.450       .  S
C1589      C1590   1.411       .  A
C1590      C1593   1.451       .  S
C1591      C1594   1.409       .  A
C1591      C1598   1.411       .  A
C1592      N1609   1.157       .  T
C1593      N1611   1.157       .  T
C1594      C1595   1.405       .  A
C1594      C1599   1.453       .  S
C1595      C1596   1.420       .  A
C1595      C1601   1.452       .  S
C1596      C1597   1.417       .  A
C1597      C1598   1.415       .  A
C1597      C1600   1.449       .  S
C1598      C1602   1.449       .  S
C1599      N1606   1.157       .  T
C1600      N1607   1.157       .  T
C1601      N1605   1.157       .  T
C1602      N1608   1.157       .  T
C1603      N1612   1.157       .  T
C1604      N1610   1.157       .  T
C1613      C1614   1.410       .  A
C1613      C1618   1.412       .  A
C1613      C1631   1.451       .  S
C1614      C1619   1.500       .  S
C1614      C1615   1.413       .  A
C1615      C1616   1.412       .  A
C1615      C1620   1.451       .  S
C1616      C1617   1.413       .  A
C1616      C1632   1.450       .  S
C1617      C1618   1.417       .  A
C1618      C1621   1.451       .  S
C1619      C1622   1.410       .  A
C1619      C1626   1.410       .  A
C1620      N1637   1.157       .  T
C1621      N1639   1.157       .  T
C1622      C1623   1.413       .  A
C1622      C1627   1.451       .  S
C1623      C1624   1.419       .  A
C1623      C1629   1.451       .  S
C1624      C1625   1.418       .  A
C1625      C1626   1.412       .  A
C1625      C1628   1.451       .  S
C1626      C1630   1.451       .  S
C1627      N1634   1.157       .  T
C1628      N1635   1.157       .  T
C1629      N1633   1.157       .  T
C1630      N1636   1.157       .  T
C1631      N1640   1.157       .  T
C1632      N1638   1.157       .  T
C1641      C1642   1.406       .  A
C1641      C1646   1.409       .  A
C1641      C1659   1.453       .  S
C1642      C1647   1.496       .  S
C1642      C1643   1.409       .  A
C1643      C1644   1.413       .  A
C1643      C1648   1.450       .  S
C1644      C1645   1.420       .  A
C1644      C1660   1.450       .  S
C1645      C1646   1.426       .  A
C1646      C1649   1.452       .  S
C1647      C1650   1.408   1_556  A
C1647      C1654   1.407       .  A
C1648      N1665   1.157       .  T
C1649      N1667   1.158       .  T
C1650      C1651   1.413       .  A
C1650      C1655   1.451       .  S
C1651      C1652   1.421       .  A
C1651      C1657   1.451       .  S
C1652      C1653   1.423       .  A
C1653      C1654   1.408   1_554  A
C1653      C1656   1.451       .  S
C1654      C1658   1.453       .  S
C1655      N1662   1.157   1_554  T
C1656      N1663   1.157       .  T
C1657      N1661   1.157       .  T
C1658      N1664   1.157       .  T
C1659      N1668   1.157       .  T
C1660      N1666   1.157       .  T
C1669      C1670   1.409       .  A
C1669      C1674   1.407       .  A
C1669      C1687   1.453       .  S
C1670      C1675   1.493       .  S
C1670      C1671   1.406       .  A
C1671      C1672   1.412       .  A
C1671      C1676   1.451       .  S
C1672      C1673   1.424       .  A
C1672      C1688   1.452       .  S
C1673      C1674   1.422       .  A
C1674      C1677   1.452       .  S
C1675      C1678   1.406       .  A
C1675      C1682   1.409       .  A
C1676      N1693   1.157       .  T
C1677      N1695   1.158       .  T
C1678      C1679   1.408       .  A
C1678      C1683   1.451       .  S
C1679      C1680   1.421       .  A
C1679      C1685   1.451       .  S
C1680      C1681   1.418       .  A
C1681      C1682   1.410       .  A
C1681      C1684   1.450       .  S
C1682      C1686   1.452       .  S
C1683      N1690   1.157       .  T
C1684      N1691   1.157       .  T
C1685      N1689   1.157       .  T
C1686      N1692   1.157       .  T
C1687      N1696   1.157       .  T
C1688      N1694   1.158       .  T
