geometry optimzed in LAMMPS
_audit_creation_date              2020-12-01 
_audit_creation_method            'lammps2cif' 
_symmetry_space_group_name_H-M    'P1' 
_symmetry_Int_Tables_number       1 
_symmetry_cell_setting            triclinic 
loop_ 
_symmetry_equiv_pos_as_xyz 
  x,y,z 
_cell_length_a                    52.13502363 
_cell_length_b                    51.8926557543005 
_cell_length_c                    32.51306700485563 
_cell_angle_alpha                 89.81306445967306 
_cell_angle_beta                  90.0880062622053 
_cell_angle_gamma                 120.26979782750601 
loop_ 
_atom_site_label 
_atom_site_type_symbol 
_atom_site_fract_x 
_atom_site_fract_y 
_atom_site_fract_z 
_atom_site_charge 
O1          O  0.83180632  0.28486910  0.16909463    -0.81400
O2          O  0.83714448  0.22490343  0.32575201    -0.66100
O3          O  0.82868470  0.27765225  0.25430220    -1.12700
C4          C  0.93384530  0.33399985  0.26955604     1.05500
O5          O  0.86193852  0.26251583  0.36790227    -0.79300
O6          O  0.87975675  0.31974384  0.34667919    -0.66900
Ni7        Ni  0.80164249  0.26168625  0.20937389     1.34900
C8          C  0.87399245  0.33567616  0.32297300     0.84200
O9          O  0.78974834  0.22408934  0.29583090    -0.79800
O10         O  0.76889019  0.23735959  0.24616223    -0.90100
C11         C  0.85016861  0.23493105  0.35953421     0.83800
O12         O  0.80618869  0.22817840  0.19604164    -0.68300
O13         O  0.92765424  0.32344432  0.30613662    -0.87600
C14         C  0.82108111  0.21746624  0.21193254     0.84600
C15         C  0.76708266  0.22224032  0.27825052     1.06200
H16         H  0.88229674  0.26695365  0.27218534     0.38000
O17         O  0.87318957  0.27704269  0.28526749    -1.10300
O18         O  0.87119591  0.33148326  0.28418356    -0.66900
Ni19       Ni  0.87094692  0.30274282  0.24590665     1.26300
O20         O  0.83388666  0.22634101  0.24657060    -0.67200
O21         O  0.91388869  0.32701921  0.24163418    -0.79400
C22         C  0.85274763  0.31205273  0.16872843     0.84000
O23         O  0.86654186  0.32500203  0.20168741    -0.66600
Ni24       Ni  0.89385430  0.29291793  0.33539199     1.27400
Ni25       Ni  0.83159153  0.25025674  0.28997126     1.26100
H26         H  0.82182401  0.28845564  0.27074331     0.38500
O27         O  0.93604493  0.17024191  0.67284398    -0.81400
O28         O  0.87891645  0.17341670  0.51356766    -0.66100
O29         O  0.93041676  0.16568962  0.58788467    -1.12700
C30         C  0.98646576  0.27031793  0.56733426     1.05500
O31         O  0.91715390  0.19473691  0.47205408    -0.79300
O32         O  0.97314623  0.21267934  0.49513058    -0.66900
Ni33       Ni  0.91390142  0.13930785  0.63353686     1.34900
C34         C  0.98920119  0.20837113  0.52031794     0.84200
O35         O  0.87661735  0.12663492  0.54835776    -0.79800
O36         O  0.89060957  0.10595007  0.59736881    -0.90100
C37         C  0.88977956  0.18483291  0.47907384     0.83800
O38         O  0.88058968  0.14437200  0.64478681    -0.68300
O39         O  0.97749683  0.26292645  0.53022223    -0.87600
C40         C  0.87164059  0.16087758  0.62911949     0.84600
C41         C  0.87558300  0.10410759  0.56536775     1.06200
H42         H  0.92106581  0.21989757  0.56453747     0.38000
O43         O  0.93077157  0.20979867  0.55332924    -1.10300
O44         O  0.98514346  0.20763793  0.55906774    -0.66900
Ni45       Ni  0.95538307  0.20817802  0.59449916     1.26300
O46         O  0.88080393  0.17325542  0.59416940    -0.67200
O47         O  0.97901163  0.25117606  0.59668337    -0.79400
C48         C  0.96298256  0.19118078  0.67326852     0.84000
O49         O  0.97652971  0.20469332  0.64042098    -0.66600
Ni50       Ni  0.94725976  0.22813055  0.50237728     1.27400
Ni51       Ni  0.90348252  0.16830666  0.55129678     1.26100
H52         H  0.94116029  0.15841181  0.57218530     0.38500
O53         O  0.88826760  0.39520484  0.00438365    -0.81400
O54         O  0.95105960  0.45074978  0.84472275    -0.66100
O55         O  0.89027083  0.40034003  0.91870399    -1.12700
C56         C  0.93473241  0.34074172  0.90031754     1.05500
O57         O  0.93324771  0.41212298  0.80380743    -0.79300
O58         O  0.89260012  0.35652540  0.82703762    -0.66900
Ni59       Ni  0.88071466  0.41768134  0.96327956     1.34900
C60         C  0.87201166  0.34075527  0.85226674     0.84200
O61         O  0.90689373  0.45462179  0.87750660    -0.79800
O62         O  0.87159376  0.44096348  0.92514616    -0.90100
C63         C  0.95179641  0.43938447  0.81086410     0.83800
O64         O  0.91952365  0.45128034  0.97431634    -0.68300
O65         O  0.93653927  0.34981440  0.86320555    -0.87600
C66         C  0.94496182  0.45952152  0.95900795     0.84600
C67         C  0.88531657  0.45603654  0.89318161     1.06200
H68         H  0.95307578  0.40782675  0.89675214     0.38000
O69         O  0.93321372  0.39841436  0.88535136    -1.10300
O70         O  0.87549686  0.34482558  0.89105186    -0.66900
Ni71       Ni  0.90636542  0.37433415  0.92662965     1.26300
O72         O  0.94811341  0.44942919  0.92501346    -0.67200
O73         O  0.92419964  0.34926290  0.92976091    -0.79400
C74         C  0.88144141  0.36784677  0.00547843     0.84000
O75         O  0.88125228  0.35401586  0.97290976    -0.66600
Ni76       Ni  0.93427913  0.38111657  0.83482779     1.27400
Ni77       Ni  0.92046498  0.42674764  0.88203744     1.26100
H78         H  0.87228583  0.38980181  0.90276303     0.38500
O79         O  0.10219814  0.50036260  0.49487253    -0.81400
O80         O  0.04531938  0.49800176  0.65901662    -0.66100
O81         O  0.10180029  0.50451315  0.58056823    -1.12700
C82         C  0.04941224  0.39881407  0.59655997     1.05500
O83         O  0.05949657  0.47265345  0.69727281    -0.79300
O84         O  0.09420849  0.45154323  0.67149995    -0.66900
Ni85       Ni  0.11116512  0.53108165  0.53497842     1.34900
C86         C  0.11505952  0.45761780  0.64631028     0.84200
O87         O  0.09089228  0.54456015  0.62514434    -0.79800
O88         O  0.12139085  0.56456734  0.57117881    -0.90100
C89         C  0.04329167  0.48411753  0.69178004     0.83800
O90         O  0.07259665  0.52577069  0.52474938    -0.68300
O91         O  0.04636152  0.40495749  0.63366093    -0.87600
C92         C  0.04818301  0.51220459  0.54416036     0.84600
C93         C  0.11001695  0.56689610  0.60476279     1.06200
H94         H  0.03757541  0.45199539  0.60313757     0.38000
O95         O  0.05727417  0.46063060  0.61473848    -1.10300
O96         O  0.11272685  0.46106847  0.60787681    -0.66900
Ni97       Ni  0.08289688  0.46190754  0.57280094     1.26300
O98         O  0.04579104  0.50091841  0.57965733    -0.67200
O99         O  0.06252947  0.41883187  0.56863052    -0.79400
C100        C  0.10743056  0.47892515  0.49415117     0.84000
O101        O  0.10721296  0.46521364  0.52685404    -0.66600
Ni102      Ni  0.05348286  0.43952318  0.66417669     1.27400
Ni103      Ni  0.07383054  0.50259899  0.61968216     1.26100
H104        H  0.12026925  0.51120741  0.59506665     0.38500
O105        O  0.05093086  0.22507042  0.83255085    -0.81400
O106        O  0.10546126  0.28897758  0.99274647    -0.66100
O107        O  0.05560755  0.22860512  0.91798026    -1.12700
C108        C  0.99926693  0.27750899  0.92889990     1.05500
O109        O  0.06609925  0.27435480  0.03157762    -0.79300
O110        O  0.01056701  0.23650097  0.00656317    -0.66900
Ni111      Ni  0.07285817  0.21796758  0.87435951     1.34900
C112        C  0.99576304  0.21482857  0.98250847     0.84200
O113        O  0.10760943  0.24280729  0.96276286    -0.79800
O114        O  0.09624634  0.20947054  0.91253031    -0.90100
C115        C  0.09387600  0.29048620  0.02599386     0.83800
O116        O  0.10622790  0.25653931  0.86232457    -0.68300
O117        O  0.00883500  0.28177343  0.96591408    -0.87600
C118        C  0.11659563  0.28205915  0.87863911     0.84600
C119        C  0.11040959  0.22246677  0.94523153     1.06200
H120        H  0.06579587  0.29301384  0.93569417     0.38000
O121        O  0.05526408  0.27350587  0.94835088    -1.10300
O122        O  0.00076377  0.21645761  0.94389655    -0.66900
Ni123      Ni  0.03099336  0.24602583  0.90772320     1.26300
O124        O  0.10704939  0.28554948  0.91297573    -0.67200
O125        O  0.00702425  0.26486065  0.90153126    -0.79400
C126        C  0.02426087  0.21956051  0.83070758     0.84000
O127        O  0.01043509  0.22000414  0.86279874    -0.66600
Ni128      Ni  0.03782478  0.27758744  0.99714865     1.27400
Ni129      Ni  0.08169451  0.25854820  0.95512180     1.26100
H130        H  0.04425097  0.21060578  0.93393289     0.38500
O131        O  0.16500286  0.44836870  0.33623032    -0.81400
O132        O  0.15520709  0.38382757  0.17664486    -0.66100
O133        O  0.16678301  0.44495135  0.25055741    -1.12700
C134        C  0.06155049  0.39737273  0.23809388     1.05500
O135        O  0.13187614  0.39963223  0.13708440    -0.79300
O136        O  0.11479624  0.43817712  0.16087231    -0.66900
Ni137      Ni  0.19431378  0.45484263  0.29485742     1.34900
C138        C  0.12141638  0.45977171  0.18491237     0.84200
O139        O  0.20379869  0.42947873  0.20687822    -0.79800
O140        O  0.22640264  0.46293419  0.25686163    -0.90100
C141        C  0.14243018  0.38262766  0.14318789     0.83800
O142        O  0.18787347  0.41574571  0.30745278    -0.68300
O143        O  0.06706949  0.39326664  0.20112037    -0.87600
C144        C  0.17174023  0.39037813  0.29088947     0.84600
C145        C  0.22708211  0.45017712  0.22358722     1.06200
H146        H  0.11156363  0.38100297  0.23229306     0.38000
O147        O  0.12111888  0.40056228  0.21966074    -1.10300
O148        O  0.12471720  0.45801621  0.22356427    -0.66900
Ni149      Ni  0.12471172  0.42818168  0.25999740     1.26300
O150        O  0.15927395  0.38745385  0.25629942    -0.67200
O151        O  0.08191058  0.40985154  0.26564956    -0.79400
C152        C  0.14351006  0.45346809  0.33738960     0.84000
O153        O  0.13034724  0.45417804  0.30471350    -0.66600
Ni154      Ni  0.10023295  0.39696044  0.17047541     1.27400
Ni155      Ni  0.16234102  0.41463932  0.21377487     1.26100
H156        H  0.17392021  0.46300394  0.23456921     0.38500
O157        O  0.13297496  0.74496845  0.63635889    -0.81400
O158        O  0.12598735  0.68345952  0.80328610    -0.66100
O159        O  0.11967240  0.73053017  0.71810811    -1.12700
C160        C  0.22554276  0.78490482  0.72570464     1.05500
O161        O  0.16054702  0.72431225  0.83532375    -0.79300
O162        O  0.18773519  0.78081569  0.80689684    -0.66900
Ni163      Ni  0.10024075  0.71472534  0.66754527     1.34900
C164        C  0.17162759  0.79048154  0.79200940     0.84200
O165        O  0.07857436  0.68062889  0.76117470    -0.79800
O166        O  0.06600199  0.68418761  0.69587258    -0.90100
C167        C  0.13989709  0.69700065  0.83596615     0.83800
O168        O  0.11497816  0.68844146  0.65793635    -0.68300
O169        O  0.22387281  0.76937251  0.75731818    -0.87600
C170        C  0.12025267  0.67225692  0.68174038     0.84600
C171        C  0.05915045  0.67361004  0.73229322     1.06200
H172        H  0.17091363  0.71962143  0.73369879     0.38000
O173        O  0.16396351  0.73033301  0.75016752    -1.10300
O174        O  0.15778125  0.78082354  0.75820094    -0.66900
Ni175      Ni  0.16116651  0.75778851  0.71454052     1.26300
O176        O  0.12196493  0.67586501  0.72068724    -0.67200
O177        O  0.20295448  0.78447818  0.71022809    -0.79400
C178        C  0.14348906  0.77248618  0.64381819     0.84000
O179        O  0.15565971  0.78306681  0.67801477    -0.66600
Ni180      Ni  0.19107594  0.74636699  0.79488873     1.27400
Ni181      Ni  0.12166181  0.70502349  0.75800688     1.26100
H182        H  0.11009177  0.74036457  0.73055830     0.38500
O183        O  0.06991110  0.80441949  0.53007623    -0.81400
O184        O  0.01192452  0.80560750  0.36263194    -0.66100
O185        O  0.05605389  0.79455097  0.44708131    -1.12700
C186        C  0.11421777  0.90080512  0.44591848     1.05500
O187        O  0.05301780  0.84107822  0.33265891    -0.79300
O188        O  0.10871448  0.86440927  0.36123142    -0.66900
Ni189      Ni  0.03884657  0.77395555  0.49674158     1.34900
C190        C  0.11731001  0.84710328  0.37511661     0.84200
O191        O  0.00681097  0.75630563  0.40166386    -0.79800
O192        O  0.00731686  0.74148883  0.46683133    -0.90100
C193        C  0.02609256  0.81998504  0.33050304     0.83800
O194        O  0.01514702  0.79147899  0.50730255    -0.68300
O195        O  0.09972984  0.90103310  0.41421801    -0.87600
C196        C  0.00001588  0.79818988  0.48380113     0.84600
C197        C  0.99825494  0.73596324  0.42956439     1.06200
H198        H  0.04794574  0.84811979  0.43484931     0.38000
O199        O  0.05828297  0.84108228  0.41779046    -1.10300
O200        O  0.10706197  0.83267165  0.40853968    -0.66900
Ni201      Ni  0.08424445  0.83565438  0.45283164     1.26300
O202        O  0.00321049  0.79959058  0.44474628    -0.67200
O203        O  0.11203663  0.87698056  0.45997842    -0.79400
C204        C  0.09730105  0.81506737  0.52224515     0.84000
O205        O  0.10797859  0.82762939  0.48826551    -0.66600
Ni206      Ni  0.07578546  0.86976431  0.37484209     1.27400
Ni207      Ni  0.03210431  0.79910363  0.40742659     1.26100
H208        H  0.06535798  0.78459006  0.43414252     0.38500
O209        O  0.85937334  0.60837399  0.86751721    -0.81400
O210        O  0.86615355  0.56036614  0.69548831    -0.66100
O211        O  0.87281604  0.60980407  0.78512576    -1.12700
C212        C  0.76727738  0.55886777  0.77567500     1.05500
O213        O  0.83247021  0.56809110  0.66471922    -0.79300
O214        O  0.80595775  0.59631185  0.69662381    -0.66900
Ni215      Ni  0.89093071  0.60952262  0.83531980     1.34900
C216        C  0.82252243  0.62150001  0.71333933     0.84200
O217        O  0.91343082  0.60313276  0.73911186    -0.79800
O218        O  0.92426422  0.61182959  0.80639510    -0.90100
C219        C  0.85316341  0.56188594  0.66304076     0.83800
O220        O  0.87260937  0.56739785  0.84122049    -0.68300
O221        O  0.76903181  0.54619907  0.74303523    -0.87600
C222        C  0.86999188  0.54826389  0.81491650     0.84600
C223        C  0.93206938  0.61188494  0.76915772     1.06200
H224        H  0.82116841  0.54817847  0.76530694     0.38000
O225        O  0.82839643  0.56664094  0.75026982    -1.10300
O226        O  0.83597140  0.62420605  0.74702892    -0.66900
Ni227      Ni  0.83150132  0.59559871  0.78830762     1.26300
O228        O  0.87025807  0.55292836  0.77629635    -0.67200
O229        O  0.78987319  0.58051221  0.79247036    -0.79400
C230        C  0.84890196  0.62543111  0.86090686     0.84000
O231        O  0.83728322  0.62503104  0.82674835    -0.66600
Ni232      Ni  0.80182063  0.55773061  0.70531559     1.27400
Ni233      Ni  0.87055148  0.58417115  0.74251026     1.26100
H234        H  0.88305462  0.63002431  0.77481127     0.38500
O235        O  0.92212349  0.73422911  0.96946026    -0.81400
O236        O  0.98134744  0.78649349  0.13813679    -0.66100
O237        O  0.93571828  0.73434697  0.05165280    -1.12700
C238        C  0.88112953  0.78524016  0.06139743     1.05500
O239        O  0.94012754  0.77829395  0.17024395    -0.79300
O240        O  0.88425230  0.74943640  0.14113880    -0.66900
Ni241      Ni  0.95231486  0.73208002  0.00104825     1.34900
C242        C  0.87497525  0.72398523  0.12498718     0.84200
O243        O  0.98472695  0.74266607  0.09560739    -0.79800
O244        O  0.98300195  0.72889642  0.02953052    -0.90100
C245        C  0.96734962  0.78541226  0.17090995     0.83800
O246        O  0.97805798  0.77361873  0.99245245    -0.68300
O247        O  0.89602859  0.79829783  0.09365897    -0.87600
C248        C  0.99434184  0.79417538  0.01738048     0.84600
C249        C  0.99274723  0.73157101  0.06637935     1.06200
H250        H  0.94623038  0.79655590  0.06941016     0.38000
O251        O  0.93537949  0.77832344  0.08509642    -1.10300
O252        O  0.88504745  0.72093416  0.09094967    -0.66900
Ni253      Ni  0.90868836  0.74867327  0.04842707     1.26300
O254        O  0.98999239  0.79140400  0.05616442    -0.67200
O255        O  0.88230413  0.76391985  0.04414276    -0.79400
C256        C  0.89463483  0.71749340  0.97696440     0.84000
O257        O  0.88408465  0.71853426  0.01130336    -0.66600
Ni258      Ni  0.91861767  0.78779737  0.13050755     1.27400
Ni259      Ni  0.96044524  0.76122615  0.09246936     1.26100
H260        H  0.92581243  0.71453287  0.06341657     0.38500
O261        O  0.05611301  0.59992722  0.20084968    -0.81400
O262        O  0.11385989  0.65655972  0.03206455    -0.66100
O263        O  0.05954648  0.61267302  0.11762437    -1.12700
C264        C  0.10762485  0.55509395  0.11475762     1.05500
O265        O  0.10626323  0.61513350  0.00131378    -0.79300
O266        O  0.07422555  0.55915852  0.03171202    -0.66900
Ni267      Ni  0.05671924  0.63072325  0.16667440     1.34900
C268        C  0.04880253  0.55062386  0.04723369     0.84200
O269        O  0.06971042  0.66102134  0.07047724    -0.79800
O270        O  0.05554469  0.66193976  0.13573900    -0.90100
C271        C  0.11347786  0.64257847  0.99967723     0.83800
O272        O  0.09822622  0.65529803  0.17687321    -0.68300
O273        O  0.12115261  0.56922316  0.08212377    -0.87600
C274        C  0.11947547  0.67073428  0.15232517     0.84600
C275        C  0.05838191  0.67003779  0.09798141     1.06200
H276        H  0.12124247  0.62134930  0.10334460     0.38000
O277        O  0.10341977  0.61062070  0.08725929    -1.10300
O278        O  0.04562638  0.56095331  0.08096325    -0.66900
Ni279      Ni  0.07273439  0.58481402  0.12369687     1.26300
O280        O  0.11710742  0.66615799  0.11356826    -0.67200
O281        O  0.08667641  0.55739958  0.13075622    -0.79400
C282        C  0.03957576  0.57219412  0.19366318     0.84000
O283        O  0.04171327  0.56119021  0.16028809    -0.66600
Ni284      Ni  0.11299554  0.59267008  0.04331480     1.27400
Ni285      Ni  0.08744673  0.63635134  0.07702459     1.26100
H286        H  0.04004784  0.60294087  0.10511393     0.38500
O287        O  0.93242879  0.53335058  0.30540021    -0.81400
O288        O  0.88089977  0.54183663  0.47260412    -0.66100
O289        O  0.93267927  0.54705677  0.38711171    -1.12700
C290        C  0.88322238  0.44096422  0.39970634     1.05500
O291        O  0.88637719  0.50755275  0.50640270    -0.79300
O292        O  0.91828419  0.48353054  0.48031801    -0.66900
Ni293      Ni  0.93570336  0.56637811  0.33631737     1.34900
C294        C  0.94301579  0.49768435  0.46177891     0.84200
O295        O  0.92463924  0.58838434  0.42985824    -0.79800
O296        O  0.93993152  0.60084178  0.36435884    -0.90100
C297        C  0.88165077  0.52934319  0.50604680     0.83800
O298        O  0.89459471  0.55163767  0.32740681    -0.68300
O299        O  0.87111048  0.44291343  0.43281304    -0.87600
C300        C  0.87354581  0.54620883  0.35177415     0.84600
C301        C  0.93654200  0.60778028  0.40087352     1.06200
H302        H  0.87041716  0.49506677  0.40594352     0.38000
O303        O  0.88866063  0.50264848  0.42132945    -1.10300
O304        O  0.94572985  0.50890023  0.42613912    -0.66900
Ni305      Ni  0.91800266  0.50535279  0.38421156     1.26300
O306        O  0.87584865  0.54437289  0.39070241    -0.67200
O307        O  0.90259845  0.46363353  0.38014795    -0.79400
C308        C  0.94945233  0.52307504  0.31292582     0.84000
O309        O  0.94780392  0.51058609  0.34681925    -0.66600
Ni310      Ni  0.87937614  0.47664333  0.46769746     1.27400
Ni311      Ni  0.90590212  0.54530523  0.42748571     1.26100
H312        H  0.95232323  0.55680409  0.39913090     0.38500
O313        O  0.71807485  0.56208259  0.16827284    -0.81400
O314        O  0.77222122  0.62450781  0.32823149    -0.66100
O315        O  0.72363739  0.56412553  0.25343246    -1.12700
C316        C  0.66420207  0.60909812  0.26985225     1.05500
O317        O  0.73315610  0.60567483  0.36797602    -0.79300
O318        O  0.67683491  0.56794583  0.34475887    -0.66900
Ni319      Ni  0.74134367  0.55532645  0.20867551     1.34900
C320        C  0.66249376  0.54638126  0.32026354     0.84200
O321        O  0.77721243  0.58137543  0.29514393    -0.79800
O322        O  0.76556045  0.54716080  0.24623370    -0.90100
C323        C  0.76077368  0.62353893  0.36266707     0.83800
O324        O  0.77387933  0.59475151  0.19734199    -0.68300
O325        O  0.67450683  0.61362946  0.30655902    -0.87600
C326        C  0.78254040  0.62014513  0.21343943     0.84600
C327        C  0.77960023  0.56051195  0.27897490     1.06200
H328        H  0.73016606  0.62664753  0.27387724     0.38000
O329        O  0.72091948  0.60696847  0.28610079    -1.10300
O330        O  0.66830790  0.54849732  0.28190930    -0.66900
Ni331      Ni  0.69707682  0.57938044  0.24568476     1.26300
O332        O  0.77256095  0.62289705  0.24779354    -0.67200
O333        O  0.67141236  0.59627697  0.24207465    -0.79400
C334        C  0.69069568  0.55471224  0.16776383     0.84000
O335        O  0.67686893  0.55350735  0.20063623    -0.66600
Ni336      Ni  0.70397223  0.60924701  0.33615922     1.27400
Ni337      Ni  0.74926129  0.59449040  0.29013137     1.26100
H338        H  0.71342123  0.54593106  0.26929288     0.38500
O339        O  0.83087315  0.78339151  0.66892563    -0.81400
O340        O  0.82527245  0.71967004  0.51068085    -0.66100
O341        O  0.83350291  0.77996972  0.58350629    -1.12700
C342        C  0.72842464  0.72966861  0.56747045     1.05500
O343        O  0.80132496  0.73402423  0.47021007    -0.79300
O344        O  0.78303769  0.77183579  0.49203328    -0.66900
Ni345      Ni  0.86073896  0.79075971  0.62828712     1.34900
C346        C  0.78891930  0.79329409  0.51599398     0.84200
O347        O  0.87213543  0.76627150  0.54099365    -0.79800
O348        O  0.89340549  0.79995155  0.59098976    -0.90100
C349        C  0.81130061  0.71677377  0.47793157     0.83800
O350        O  0.85540748  0.75215975  0.64129764    -0.68300
O351        O  0.73479150  0.72622094  0.53068239    -0.87600
C352        C  0.84025998  0.72675347  0.62444794     0.84600
C353        C  0.89479905  0.78754431  0.55782329     1.06200
H354        H  0.77988224  0.71519183  0.56427367     0.38000
O355        O  0.78906172  0.73475327  0.55171042    -1.10300
O356        O  0.79102181  0.79134000  0.55487926    -0.66900
Ni357      Ni  0.79117286  0.76192853  0.59183332     1.26300
O358        O  0.82806210  0.72338046  0.58958779    -0.67200
O359        O  0.74821794  0.74238759  0.59571910    -0.79400
C360        C  0.80923581  0.78824760  0.66950572     0.84000
O361        O  0.79530723  0.78760822  0.63681543    -0.66600
Ni362      Ni  0.76876275  0.73067950  0.50165060     1.27400
Ni363      Ni  0.83064468  0.75018985  0.54696084     1.26100
H364        H  0.84032566  0.79795810  0.56747816     0.38500
O365        O  0.77061358  0.83723039  0.83049573    -0.81400
O366        O  0.70955245  0.82608037  0.99171623    -0.66100
O367        O  0.77014826  0.84039336  0.91592058    -1.12700
C368        C  0.72867537  0.73578668  0.93060744     1.05500
O369        O  0.72667233  0.80398860  0.03171449    -0.79300
O370        O  0.76769189  0.79084939  0.00658417    -0.66900
Ni371      Ni  0.77763990  0.86703194  0.87119766     1.34900
C372        C  0.78909976  0.79808865  0.98198689     0.84200
O373        O  0.75263086  0.87592278  0.95933184    -0.79800
O374        O  0.78560039  0.89907929  0.90883488    -0.90100
C375        C  0.70936551  0.81415921  0.02563944     0.83800
O376        O  0.73817393  0.85970899  0.86136582    -0.68300
O377        O  0.72493059  0.74087109  0.96787735    -0.87600
C378        C  0.71328087  0.84235200  0.87817822     0.84600
C379        C  0.77241540  0.89957442  0.94167578     1.06200
H380        H  0.70852182  0.78285590  0.93639538     0.38000
O381        O  0.72812674  0.79353102  0.94848562    -1.10300
O382        O  0.78678239  0.80089330  0.94328920    -0.66900
Ni383      Ni  0.75579467  0.79861019  0.90717838     1.26300
O384        O  0.71124766  0.82920137  0.91203701    -0.67200
O385        O  0.73961682  0.75597076  0.90238779    -0.79400
C386        C  0.77964082  0.81859633  0.82853327     0.84000
O387        O  0.78160320  0.80567654  0.86099282    -0.66600
Ni388      Ni  0.72630610  0.77335046  0.99803039     1.27400
Ni389      Ni  0.73991787  0.83449090  0.95353211     1.26100
H390        H  0.78847610  0.84872060  0.93128259     0.38500
O391        O  0.55263181  0.72574048  0.33678354    -0.81400
O392        O  0.61652631  0.78273997  0.17669194    -0.66100
O393        O  0.55601498  0.73254457  0.25131305    -1.12700
C394        C  0.60286804  0.67442497  0.23688261     1.05500
O395        O  0.60055701  0.74349558  0.13720585    -0.79300
O396        O  0.56347693  0.68697719  0.16026840    -0.66900
Ni397      Ni  0.54654798  0.74963643  0.29642188     1.34900
C398        C  0.54138001  0.67266579  0.18391133     0.84200
O399        O  0.57119179  0.78543985  0.20792727    -0.79800
O400        O  0.53882053  0.77444944  0.25944998    -0.90100
C401        C  0.61754302  0.77119765  0.14314857     0.83800
O402        O  0.58561353  0.78216386  0.30873774    -0.68300
O403        O  0.60856626  0.68545596  0.20054966    -0.87600
C404        C  0.61070942  0.79170510  0.29158036     0.84600
C405        C  0.55115452  0.78824572  0.22607994     1.06200
H406        H  0.61925658  0.74118430  0.23267066     0.38000
O407        O  0.59993605  0.73132694  0.21970953    -1.10300
O408        O  0.54250381  0.67814328  0.22223055    -0.66900
Ni409      Ni  0.57202872  0.70657184  0.25963317     1.26300
O410        O  0.61353125  0.78291311  0.25639440    -0.67200
O411        O  0.58934239  0.68124035  0.26397702    -0.79400
C412        C  0.54553307  0.69830589  0.33691104     0.84000
O413        O  0.54543926  0.68510489  0.30387802    -0.66600
Ni414      Ni  0.60418467  0.71473653  0.17018907     1.27400
Ni415      Ni  0.58606537  0.75873751  0.21426035     1.26100
H416        H  0.53792036  0.72193857  0.23554704     0.38500
O417        O  0.49781732  0.61372612  0.49961636    -0.81400
O418        O  0.50361788  0.55935623  0.66319583    -0.66100
O419        O  0.49507704  0.60843222  0.58501509    -1.12700
C420        C  0.60085153  0.66437212  0.59879100     1.05500
O421        O  0.52817548  0.59968108  0.69964434    -0.79300
O422        O  0.55037786  0.65557475  0.67480665    -0.66900
Ni423      Ni  0.46787780  0.59070178  0.54058169     1.34900
C424        C  0.54158719  0.66889294  0.65099882     0.84200
O425        O  0.45670882  0.55729838  0.63073319    -0.79800
O426        O  0.43511411  0.56666500  0.57811824    -0.90100
C427        C  0.51694438  0.57175738  0.69592304     0.83800
O428        O  0.47405620  0.55788753  0.52983607    -0.68300
O429        O  0.59549806  0.65358230  0.63523722    -0.87600
C430        C  0.48876220  0.54781014  0.54812611     0.84600
C431        C  0.43376005  0.55405539  0.61261856     1.06200
H432        H  0.54855320  0.59842896  0.60506180     0.38000
O433        O  0.53980258  0.60910017  0.61744989    -1.10300
O434        O  0.53665297  0.66270246  0.61286434    -0.66900
Ni435      Ni  0.53731358  0.63353577  0.57646276     1.26300
O436        O  0.50013056  0.55674373  0.58348300    -0.67200
O437        O  0.58034580  0.65816562  0.57194091    -0.79400
C438        C  0.51852546  0.64106456  0.49876808     0.84000
O439        O  0.53255922  0.65449551  0.53127668    -0.66600
Ni440      Ni  0.56132017  0.62626840  0.66638462     1.27400
Ni441      Ni  0.49822068  0.58281926  0.62373483     1.26100
H442        H  0.48804967  0.61970892  0.59997050     0.38500
O443        O  0.60841385  0.50839499  0.00492469    -0.81400
O444        O  0.55337877  0.51276952  0.84405840    -0.66100
O445        O  0.60354152  0.50434771  0.91959038    -1.12700
C446        C  0.66132818  0.60875025  0.89959206     1.05500
O447        O  0.59182157  0.53538558  0.80304387    -0.79300
O448        O  0.64592820  0.54889198  0.82776482    -0.66900
Ni449      Ni  0.58598061  0.47773429  0.96497133     1.34900
C450        C  0.66213910  0.54550040  0.85367666     0.84200
O451        O  0.55081129  0.46544675  0.87696449    -0.79800
O452        O  0.56238029  0.44444245  0.92833413    -0.90100
C453        C  0.56474073  0.52598831  0.81085506     0.83800
O454        O  0.55292084  0.48345341  0.97558706    -0.68300
O455        O  0.65420216  0.60080659  0.86224439    -0.87600
C456        C  0.54348830  0.49890479  0.95776105     0.84600
C457        C  0.54866019  0.44273330  0.89489847     1.06200
H458        H  0.59474407  0.55897074  0.89545853     0.38000
O459        O  0.60464452  0.54888494  0.88482774    -1.10300
O460        O  0.65860172  0.54641687  0.89231768    -0.66900
Ni461      Ni  0.62853422  0.54693237  0.92692981     1.26300
O462        O  0.55324224  0.51119397  0.92301502    -0.67200
O463        O  0.65244642  0.59017740  0.92987918    -0.79400
C464        C  0.63555684  0.52918712  0.00568339     0.84000
O465        O  0.64909937  0.54302936  0.97309999    -0.66600
Ni466      Ni  0.62265422  0.56727471  0.83418102     1.27400
Ni467      Ni  0.57741038  0.50720958  0.88169085     1.26100
H468        H  0.61454720  0.49707394  0.90453349     0.38500
O469        O  0.46192106  0.41160931  0.30426887    -0.81400
O470        O  0.45529462  0.35060500  0.47149552    -0.66100
O471        O  0.44997768  0.39859661  0.38680696    -1.12700
C472        C  0.55580184  0.45151266  0.39510536     1.05500
O473        O  0.48957409  0.39115881  0.50364110    -0.79300
O474        O  0.51661836  0.44731394  0.47626059    -0.66900
Ni475      Ni  0.42896187  0.38313672  0.33698843     1.34900
C476        C  0.50126232  0.45732887  0.45986211     0.84200
O477        O  0.40884159  0.34950313  0.43074843    -0.79800
O478        O  0.39453920  0.35422948  0.36677995    -0.90100
C479        C  0.46882572  0.36395945  0.50440918     0.83800
O480        O  0.44103618  0.35489150  0.32665000    -0.68300
O481        O  0.55361088  0.43662215  0.42760050    -0.87600
C482        C  0.44795259  0.33960529  0.34972608     0.84600
C483        C  0.38885085  0.34375695  0.40340132     1.06200
H484        H  0.50062653  0.38611409  0.40279737     0.38000
O485        O  0.49385631  0.39726437  0.41866189    -1.10300
O486        O  0.48925691  0.44882462  0.42479332    -0.66900
Ni487      Ni  0.49163850  0.42458960  0.38213467     1.26300
O488        O  0.45120307  0.34375441  0.38854579    -0.67200
O489        O  0.53349926  0.45001745  0.37692017    -0.79400
C490        C  0.47446499  0.43941285  0.31107468     0.84000
O491        O  0.48692766  0.44993491  0.34507448    -0.66600
Ni492      Ni  0.52044011  0.41325493  0.46402630     1.27400
Ni493      Ni  0.45159868  0.37283112  0.42661016     1.26100
H494        H  0.44125766  0.40902270  0.39975553     0.38500
O495        O  0.40282421  0.47277197  0.19712445    -0.81400
O496        O  0.34640549  0.46903450  0.02804574    -0.66100
O497        O  0.39190564  0.46154799  0.11389508    -1.12700
C498        C  0.44694868  0.56769127  0.10659846     1.05500
O499        O  0.38748426  0.50275706  0.99614951    -0.79300
O500        O  0.44289996  0.52752175  0.02511361    -0.66900
Ni501      Ni  0.37507363  0.44029830  0.16327870     1.34900
C502        C  0.45335212  0.51319348  0.04352551     0.84200
O503        O  0.34258753  0.42110987  0.06881442    -0.79800
O504        O  0.34660906  0.40637617  0.13260248    -0.90100
C505        C  0.36030336  0.48236859  0.99526569     0.83800
O506        O  0.34722711  0.45298564  0.17237185    -0.68300
O507        O  0.43364855  0.56604843  0.07284154    -0.87600
C508        C  0.33309847  0.46102487  0.14902695     0.84600
C509        C  0.33595059  0.40074429  0.09616098     1.06200
H510        H  0.38160052  0.51373709  0.09654377     0.38000
O511        O  0.39256326  0.50644581  0.08141445    -1.10300
O512        O  0.44415111  0.50129847  0.07866392    -0.66900
Ni513      Ni  0.41838419  0.50320806  0.11950218     1.26300
O514        O  0.33804208  0.46481586  0.11031312    -0.67200
O515        O  0.44388555  0.54496856  0.12580761    -0.79400
C516        C  0.43064031  0.48510869  0.19196700     0.84000
O517        O  0.44215094  0.49759942  0.15825874    -0.66600
Ni518      Ni  0.40992485  0.53315361  0.03617912     1.27400
Ni519      Ni  0.36720235  0.46415063  0.07332523     1.26100
H520        H  0.40228410  0.45257027  0.10129592     0.38500
O521        O  0.18862846  0.27163688  0.53556089    -0.81400
O522        O  0.19625708  0.22426910  0.36316910    -0.66100
O523        O  0.20118850  0.27378068  0.45244396    -1.12700
C524        C  0.09555763  0.22154898  0.44422570     1.05500
O525        O  0.16023594  0.22810226  0.33234393    -0.79300
O526        O  0.13629431  0.25904897  0.36294772    -0.66900
Ni527      Ni  0.22095157  0.27577261  0.50217576     1.34900
C528        C  0.15113904  0.28396505  0.38116436     0.84200
O529        O  0.24249927  0.26917139  0.40536403    -0.79800
O530        O  0.25482226  0.28081570  0.47198569    -0.90100
C531        C  0.18198162  0.22348068  0.33079234     0.83800
O532        O  0.20625208  0.23434406  0.50887047    -0.68300
O533        O  0.09752866  0.21019031  0.41043936    -0.87600
C534        C  0.20336909  0.21498476  0.48283801     0.84600
C535        C  0.26178100  0.28009130  0.43444018     1.06200
H536        H  0.15081611  0.21082686  0.43319127     0.38000
O537        O  0.15732479  0.22928603  0.41845739    -1.10300
O538        O  0.16239173  0.28615676  0.41653626    -0.66900
Ni539      Ni  0.15972978  0.25788184  0.45724619     1.26300
O540        O  0.20161339  0.21844328  0.44421025    -0.67200
O541        O  0.11808141  0.24136297  0.46332073    -0.79400
C542        C  0.17691262  0.28765888  0.53000340     0.84000
O543        O  0.16478083  0.28691923  0.49616704    -0.66600
Ni544      Ni  0.13039129  0.21998458  0.37345585     1.27400
Ni545      Ni  0.19968421  0.24833434  0.40988330     1.26100
H546        H  0.21034839  0.29384425  0.44156428     0.38500
O547        O  0.25323159  0.39574934  0.63814107    -0.81400
O548        O  0.31257122  0.45467453  0.80487191    -0.66100
O549        O  0.26767574  0.39973531  0.72078157    -1.12700
C550        C  0.20967787  0.44747881  0.72518226     1.05500
O551        O  0.27211406  0.44888170  0.83630912    -0.79300
O552        O  0.21631101  0.41580203  0.80864256    -0.66900
Ni553      Ni  0.28482213  0.39699186  0.67085437     1.34900
C554        C  0.20755044  0.38992301  0.79438310     0.84200
O555        O  0.31686233  0.41050339  0.76570345    -0.79800
O556        O  0.31686561  0.39646014  0.70022747    -0.90100
C557        C  0.29886430  0.45449037  0.83747303     0.83800
O558        O  0.30850728  0.43874071  0.65997520    -0.68300
O559        O  0.22458489  0.46192222  0.75672420    -0.87600
C560        C  0.32433840  0.46010059  0.68407860     0.84600
C561        C  0.32585027  0.39952987  0.73757173     1.06200
H562        H  0.27635296  0.46167888  0.73407292     0.38000
O563        O  0.26598366  0.44401329  0.75098555    -1.10300
O564        O  0.21711823  0.38616136  0.76027073    -0.66900
Ni565      Ni  0.23961604  0.41263590  0.71596575     1.26300
O566        O  0.32085992  0.45769471  0.72307187    -0.67200
O567        O  0.21192447  0.42623698  0.70971865    -0.79400
C568        C  0.22578241  0.37917535  0.64643791     0.84000
O569        O  0.21549941  0.38086116  0.68070441    -0.66600
Ni570      Ni  0.24894013  0.45464162  0.79489223     1.27400
Ni571      Ni  0.29187389  0.42805753  0.76043542     1.26100
H572        H  0.25836158  0.38023963  0.73350566     0.38500
O573        O  0.26414804  0.19743729  0.97220641    -0.81400
O574        O  0.21374440  0.20609172  0.14019726    -0.66100
O575        O  0.26517031  0.21148365  0.05368232    -1.12700
C576        C  0.21509545  0.10526661  0.06548113     1.05500
O577        O  0.21957961  0.17185444  0.17367233    -0.79300
O578        O  0.25110250  0.14752484  0.14650529    -0.66900
Ni579      Ni  0.26768560  0.23067324  0.00278804     1.34900
C580        C  0.27592657  0.16209438  0.12825896     0.84200
O581        O  0.25741216  0.25286623  0.09643638    -0.79800
O582        O  0.27269301  0.26541593  0.03082516    -0.90100
C583        C  0.21389850  0.19303729  0.17348667     0.83800
O584        O  0.22635623  0.21637158  0.99461021    -0.68300
O585        O  0.20328907  0.10725723  0.09892165    -0.87600
C586        C  0.20563701  0.21087982  0.01986162     0.84600
C587        C  0.26969503  0.27234330  0.06751908     1.06200
H588        H  0.20323968  0.15946056  0.07305027     0.38000
O589        O  0.22151688  0.16705040  0.08836198    -1.10300
O590        O  0.27867904  0.17354284  0.09274200    -0.66900
Ni591      Ni  0.25070656  0.16974753  0.05090970     1.26300
O592        O  0.20840602  0.20845098  0.05843874    -0.67200
O593        O  0.23532616  0.12789308  0.04682235    -0.79400
C594        C  0.28192659  0.18801041  0.97949924     0.84000
O595        O  0.28041434  0.17520910  0.01310372    -0.66600
Ni596      Ni  0.21219919  0.14094404  0.13449193     1.27400
Ni597      Ni  0.23869654  0.20969393  0.09456788     1.26100
H598        H  0.28490982  0.22135364  0.06539675     0.38500
O599        O  0.39070012  0.26527499  0.86910620    -0.81400
O600        O  0.44593785  0.32427612  0.70112862    -0.66100
O601        O  0.39245350  0.27855703  0.78655968    -1.12700
C602        C  0.44240143  0.22286824  0.77967258     1.05500
O603        O  0.43826925  0.28311174  0.66906818    -0.79300
O604        O  0.40773153  0.22727279  0.69803300    -0.66900
Ni605      Ni  0.38872787  0.29516603  0.83630666     1.34900
C606        C  0.38237937  0.21789671  0.71415515     0.84200
O607        O  0.40246785  0.32861939  0.74212799    -0.79800
O608        O  0.38560203  0.32560566  0.80665344    -0.90100
C609        C  0.44477896  0.31032723  0.66824575     0.83800
O610        O  0.42981243  0.32118124  0.84616402    -0.68300
O611        O  0.45540786  0.23725760  0.74694122    -0.87600
C612        C  0.45186728  0.33617204  0.82284110     0.84600
C613        C  0.38991778  0.33604451  0.76999446     1.06200
H614        H  0.45438039  0.28826850  0.77035834     0.38000
O615        O  0.43637078  0.27764364  0.75443472    -1.10300
O616        O  0.37896258  0.22709251  0.74875156    -0.66900
Ni617      Ni  0.40640964  0.25113972  0.79113347     1.26300
O618        O  0.45028000  0.33233813  0.78382457    -0.67200
O619        O  0.42124445  0.22443928  0.79635121    -0.79400
C620        C  0.37416498  0.23758750  0.86211807     0.84000
O621        O  0.37615440  0.22674065  0.82848894    -0.66600
Ni622      Ni  0.44625021  0.26077561  0.70954635     1.27400
Ni623      Ni  0.42016838  0.30348303  0.74642063     1.26100
H624        H  0.37304849  0.26868758  0.77390494     0.38500
O625        O  0.52809243  0.94251638  0.19278092    -0.81400
O626        O  0.52820793  0.88666663  0.02475331    -0.66100
O627        O  0.53992352  0.94097622  0.11082841    -1.12700
C628        C  0.43443281  0.89465540  0.10645048     1.05500
O629        O  0.49574025  0.89652781  0.99470853    -0.79300
O630        O  0.47160264  0.92754871  0.02516054    -0.66900
Ni631      Ni  0.55896499  0.94247373  0.16075403     1.34900
C632        C  0.48952389  0.95313336  0.03968868     0.84200
O633        O  0.57763589  0.92934061  0.06570059    -0.79800
O634        O  0.59127610  0.94330454  0.13149685    -0.90100
C635        C  0.51455049  0.88778267  0.99266877     0.83800
O636        O  0.54098003  0.90078612  0.17009006    -0.68300
O637        O  0.43478699  0.88005069  0.07506754    -0.87600
C638        C  0.53569538  0.87968180  0.14570333     0.84600
C639        C  0.59728336  0.93992661  0.09445986     1.06200
H640        H  0.48578886  0.88007839  0.09636238     0.38000
O641        O  0.49354212  0.89799368  0.07990745    -1.10300
O642        O  0.50412124  0.95658287  0.07249266    -0.66900
Ni643      Ni  0.49920325  0.92915322  0.11568947     1.26300
O644        O  0.53376337  0.88214319  0.10685376    -0.67200
O645        O  0.45799991  0.91639954  0.12128560    -0.79400
C646        C  0.51911329  0.96083060  0.18629982     0.84000
O647        O  0.50748557  0.96059880  0.15222496    -0.66600
Ni648      Ni  0.46622214  0.88871653  0.03607667     1.27400
Ni649      Ni  0.53513547  0.91281706  0.07044859     1.26100
H650        H  0.55066805  0.96059899  0.09861154     0.38500
O651        O  0.58900373  0.06773898  0.30248770    -0.81400
O652        O  0.64582570  0.11745615  0.47194215    -0.66100
O653        O  0.60068994  0.06602555  0.38458919    -1.12700
C654        C  0.54440556  0.11512435  0.39483251     1.05500
O655        O  0.60536328  0.11081382  0.50469162    -0.79300
O656        O  0.55002775  0.07885140  0.47579347    -0.66900
Ni657      Ni  0.61803518  0.06403950  0.33432649     1.34900
C658        C  0.53988778  0.05410144  0.45727491     0.84200
O659        O  0.64949282  0.07435521  0.42892742    -0.79800
O660        O  0.64760401  0.05948500  0.36339487    -0.90100
C661        C  0.63223386  0.11677484  0.50487122     0.83800
O662        O  0.64487339  0.10555733  0.32680380    -0.68300
O663        O  0.55804720  0.12685109  0.42841626    -0.87600
C664        C  0.65990090  0.12639165  0.35208284     0.84600
C665        C  0.65743284  0.06282831  0.40023090     1.06200
H666        H  0.61061215  0.12798071  0.40397395     0.38000
O667        O  0.59966073  0.10944552  0.41895694    -1.10300
O668        O  0.54871668  0.05182069  0.42176338    -0.66900
Ni669      Ni  0.57363167  0.08035753  0.38066171     1.26300
O670        O  0.65453924  0.12341050  0.39059595    -0.67200
O671        O  0.54741886  0.09560796  0.37551960    -0.79400
C672        C  0.56156871  0.05005955  0.30864740     0.84000
O673        O  0.54981284  0.05083413  0.34204684    -0.66600
Ni674      Ni  0.58238898  0.11816868  0.46466671     1.27400
Ni675      Ni  0.62496898  0.09254944  0.42604197     1.26100
H676        H  0.59056704  0.04611338  0.39614039     0.38500
O677        O  0.79497583  0.07890211  0.97241857    -0.81400
O678        O  0.79263651  0.02012947  0.13988628    -0.66100
O679        O  0.78285902  0.06402486  0.05435626    -1.12700
C680        C  0.88836590  0.12093737  0.05735025     1.05500
O681        O  0.82744488  0.06170587  0.17026299    -0.79300
O682        O  0.85321927  0.11761462  0.13971329    -0.66900
Ni683      Ni  0.76407417  0.04684243  0.00405215     1.34900
C684        C  0.83524970  0.12562392  0.12695575     0.84200
O685        O  0.74389019  0.01476489  0.09940024    -0.79800
O686        O  0.73160743  0.01461237  0.03286334    -0.90100
C687        C  0.80641776  0.03462241  0.17200916     0.83800
O688        O  0.78219487  0.02334831  0.99496314    -0.68300
O689        O  0.88801423  0.10543416  0.08825799    -0.87600
C690        C  0.78565541  0.00639321  0.01974180     0.84600
C691        C  0.72475601  0.00531857  0.06995304     1.06200
H692        H  0.83540259  0.05533258  0.06786218     0.38000
O693        O  0.82850702  0.06583434  0.08487327    -1.10300
O694        O  0.81978991  0.11438496  0.09471718    -0.66900
Ni695      Ni  0.82385906  0.09242210  0.05015529     1.26300
O696        O  0.78648360  0.01012524  0.05857165    -0.67200
O697        O  0.86517959  0.12051287  0.04452179    -0.79400
C698        C  0.80431151  0.10607240  0.98110067     0.84000
O699        O  0.81644742  0.11669216  0.01516778    -0.66600
Ni700      Ni  0.85669026  0.08312806  0.12805689     1.27400
Ni701      Ni  0.78662394  0.04001200  0.09461565     1.26100
H702        H  0.77249572  0.07321162  0.06638140     0.38500
O703        O  0.73213908  0.13933997  0.86611544    -0.81400
O704        O  0.67725966  0.13531545  0.69596570    -0.66100
O705        O  0.72150544  0.12801813  0.78359103    -1.12700
C706        C  0.77639328  0.23480495  0.77638934     1.05500
O707        O  0.71894286  0.16920045  0.66590703    -0.79300
O708        O  0.77400421  0.19630505  0.69660621    -0.66900
Ni709      Ni  0.70367870  0.10686365  0.83280707     1.34900
C710        C  0.78361930  0.18073185  0.71337643     0.84200
O711        O  0.67342976  0.08745386  0.73726489    -0.79800
O712        O  0.67457975  0.07264163  0.80220467    -0.90100
C713        C  0.69168441  0.14911338  0.66374069     0.83800
O714        O  0.67656637  0.12077361  0.84111694    -0.68300
O715        O  0.76211050  0.23305596  0.74351320    -0.87600
C716        C  0.66219366  0.12737505  0.81591169     0.84600
C717        C  0.66550999  0.06700139  0.76488689     1.06200
H718        H  0.71106301  0.17985524  0.76594926     0.38000
O719        O  0.72232755  0.17292025  0.75078534    -1.10300
O720        O  0.77335322  0.16742216  0.74753048    -0.66900
Ni721      Ni  0.74813351  0.16989835  0.78879201     1.26300
O722        O  0.66770973  0.13050503  0.77745357    -0.67200
O723        O  0.77412400  0.21196855  0.79451087    -0.79400
C724        C  0.75995540  0.15103176  0.86076610     0.84000
O725        O  0.77172423  0.16431767  0.82758274    -0.66600
Ni726      Ni  0.73978354  0.20003322  0.70619037     1.27400
Ni727      Ni  0.69756479  0.13053917  0.74200458     1.26100
H728        H  0.73197619  0.11889285  0.77177123     0.38500
O729        O  0.71990940  0.92995472  0.53119162    -0.81400
O730        O  0.77854846  0.98866098  0.36321073    -0.66100
O731        O  0.72412560  0.94302825  0.44795790    -1.12700
C732        C  0.77473939  0.88771982  0.44499610     1.05500
O733        O  0.77243963  0.94774257  0.33274357    -0.79300
O734        O  0.74068797  0.89187430  0.36128687    -0.66900
Ni735      Ni  0.72041641  0.96045875  0.49699594     1.34900
C736        C  0.71526969  0.88272555  0.37718899     0.84200
O737        O  0.73375097  0.99191547  0.40124135    -0.79800
O738        O  0.71960357  0.99175629  0.46652958    -0.90100
C739        C  0.77854643  0.97473100  0.33095139     0.83800
O740        O  0.76160805  0.98466623  0.50771472    -0.68300
O741        O  0.78757866  0.90159155  0.41196555    -0.87600
C742        C  0.78303181  0.00062668  0.48378887     0.84600
C743        C  0.72271924  0.00082230  0.42930432     1.06200
H744        H  0.78675642  0.95360862  0.43405513     0.38000
O745        O  0.76891420  0.94253922  0.41791107    -1.10300
O746        O  0.71191709  0.89196577  0.41168216    -0.66900
Ni747      Ni  0.73860179  0.91615872  0.45436810     1.26300
O748        O  0.78100518  0.99716411  0.44486557    -0.67200
O749        O  0.75385739  0.88981404  0.46168292    -0.79400
C750        C  0.70427390  0.90229513  0.52356360     0.84000
O751        O  0.70771747  0.89161899  0.49072874    -0.66600
Ni752      Ni  0.77926346  0.92524215  0.37395970     1.27400
Ni753      Ni  0.75203681  0.96759061  0.40769762     1.26100
H754        H  0.70476588  0.93291665  0.43524797     0.38500
O755        O  0.59941641  0.86481807  0.63706760    -0.81400
O756        O  0.54338098  0.87046372  0.80089924    -0.66100
O757        O  0.59809228  0.87813538  0.71838217    -1.12700
C758        C  0.54904863  0.77201213  0.72957234     1.05500
O759        O  0.55172903  0.83830626  0.83596295    -0.79300
O760        O  0.58304399  0.81287332  0.81024162    -0.66900
Ni761      Ni  0.60207499  0.89770913  0.66762093     1.34900
C762        C  0.60835962  0.82885997  0.79371738     0.84200
O763        O  0.58762709  0.91851131  0.75979507    -0.79800
O764        O  0.60577841  0.93208242  0.69560961    -0.90100
C765        C  0.54456670  0.85846437  0.83458228     0.83800
O766        O  0.56117055  0.88275699  0.65660204    -0.68300
O767        O  0.53587920  0.77354732  0.76185208    -0.87600
C768        C  0.53895758  0.87526734  0.67960300     0.84600
C769        C  0.60109704  0.93850148  0.73181277     1.06200
H770        H  0.53612346  0.82492363  0.73497128     0.38000
O771        O  0.55408988  0.83299464  0.75111197    -1.10300
O772        O  0.61152404  0.84107066  0.75875575    -0.66900
Ni773      Ni  0.58438620  0.83660014  0.71552493     1.26300
O774        O  0.54028793  0.87296330  0.71860154    -0.67200
O775        O  0.56974312  0.79491121  0.71183026    -0.79400
C776        C  0.61636089  0.85446386  0.64483942     0.84000
O777        O  0.61501658  0.84255593  0.67915944    -0.66600
Ni778      Ni  0.54444353  0.80703243  0.79739259     1.27400
Ni779      Ni  0.56997859  0.87535575  0.75720724     1.26100
H780        H  0.61740138  0.88822749  0.73138327     0.38500
O781        O  0.16903047  0.94892096  0.83545178    -0.81400
O782        O  0.17212870  0.88813660  0.98778428    -0.66100
O783        O  0.16260130  0.94142367  0.91947335    -1.12700
C784        C  0.26649879  0.00102154  0.94026795     1.05500
O785        O  0.19332596  0.92472984  0.03230267    -0.79300
O786        O  0.20918691  0.98161084  0.01474582    -0.66900
Ni787      Ni  0.13725059  0.92567721  0.87313468     1.34900
C788        C  0.20359773  0.99807913  0.99213523     0.84200
O789        O  0.12450683  0.88581729  0.95565611    -0.79800
O790        O  0.10391734  0.90162973  0.90880300    -0.90100
C791        C  0.18310304  0.89751257  0.02279166     0.83800
O792        O  0.14151122  0.89179649  0.86039913    -0.68300
O793        O  0.25957819  0.98958140  0.97637940    -0.87600
C794        C  0.15849759  0.88310136  0.87491236     0.84600
C795        C  0.10200785  0.88541047  0.93962655     1.06200
H796        H  0.21790018  0.93379105  0.93853799     0.38000
O797        O  0.20734946  0.94240441  0.95162315    -1.10300
O798        O  0.20242038  0.99567546  0.95285346    -0.66900
Ni799      Ni  0.20457693  0.96838438  0.91344223     1.26300
O800        O  0.17200729  0.89293582  0.90879422    -0.67200
O801        O  0.24726807  0.99413042  0.91137197    -0.79400
C802        C  0.18732374  0.97691738  0.83581236     0.84000
O803        O  0.19964532  0.99035720  0.86931316    -0.66600
Ni804      Ni  0.22570214  0.95706440  0.00297751     1.27400
Ni805      Ni  0.16617946  0.91377229  0.95325345     1.26100
H806        H  0.15445084  0.95089861  0.93623760     0.38500
O807        O  0.27401866  0.84302093  0.33858920    -0.81400
O808        O  0.21850141  0.84518213  0.17863421    -0.66100
O809        O  0.26955924  0.83806532  0.25346097    -1.12700
C810        C  0.32696904  0.94205993  0.23146943     1.05500
O811        O  0.25597565  0.86754740  0.13547192    -0.79300
O812        O  0.31074607  0.88107642  0.16080809    -0.66900
Ni813      Ni  0.25248571  0.81165638  0.29897769     1.34900
C814        C  0.32817420  0.87958397  0.18665238     0.84200
O815        O  0.21608651  0.79868544  0.21324797    -0.79800
O816        O  0.22981098  0.77798860  0.26242905    -0.90100
C817        C  0.22851548  0.85617688  0.14378414     0.83800
O818        O  0.21826624  0.81565081  0.30849329    -0.68300
O819        O  0.31932297  0.93357687  0.19434715    -0.87600
C820        C  0.20884894  0.83157395  0.29215186     0.84600
C821        C  0.21467744  0.77601765  0.23037203     1.06200
H822        H  0.26021069  0.89224140  0.22829725     0.38000
O823        O  0.27002584  0.88200630  0.21794706    -1.10300
O824        O  0.32474321  0.88064447  0.22536015    -0.66900
Ni825      Ni  0.29427365  0.88060940  0.26005327     1.26300
O826        O  0.21936493  0.84514565  0.25824715    -0.67200
O827        O  0.31779036  0.92371653  0.26205935    -0.79400
C828        C  0.30127223  0.86361524  0.33952741     0.84000
O829        O  0.31492116  0.87717380  0.30675133    -0.66600
Ni830      Ni  0.28741526  0.89957558  0.16680289     1.27400
Ni831      Ni  0.24289306  0.84044732  0.21630473     1.26100
H832        H  0.28054767  0.83086939  0.23816344     0.38500
O833        O  0.38383137  0.89490338  0.50099615    -0.81400
O834        O  0.44360914  0.95517149  0.66106185    -0.66100
O835        O  0.39082328  0.89634840  0.58622869    -1.12700
C836        C  0.33522492  0.94511349  0.60786324     1.05500
O837        O  0.40547784  0.93981857  0.70233436    -0.79300
O838        O  0.34959326  0.90162075  0.68034760    -0.66900
Ni839      Ni  0.40631449  0.88606642  0.54001257     1.34900
C840        C  0.33375601  0.88076636  0.65567549     0.84200
O841        O  0.44362139  0.90892221  0.62682482    -0.79800
O842        O  0.42988407  0.87582214  0.57557949    -0.90100
C843        C  0.43281383  0.95705385  0.69483651     0.83800
O844        O  0.43995606  0.92447075  0.52801261    -0.68300
O845        O  0.34519162  0.94744281  0.64451382    -0.87600
C846        C  0.45095198  0.94964300  0.54562008     0.84600
C847        C  0.44444042  0.88776162  0.60854695     1.06200
H848        H  0.40218815  0.96060044  0.60918933     0.38000
O849        O  0.39190066  0.94075359  0.62085294    -1.10300
O850        O  0.33713754  0.88393132  0.61672183    -0.66900
Ni851      Ni  0.36629667  0.91428643  0.58018652     1.26300
O852        O  0.44258060  0.95298549  0.58094294    -0.67200
O853        O  0.34261731  0.93366334  0.57834823    -0.79400
C854        C  0.35701136  0.88923204  0.50150368     0.84000
O855        O  0.34418930  0.88934840  0.53483801    -0.66600
Ni856      Ni  0.37565104  0.94315576  0.67193796     1.27400
Ni857      Ni  0.41825586  0.92539447  0.62332715     1.26100
H858        H  0.37982451  0.87808705  0.60176587     0.38500
O859        O  0.49597891  0.11676353  0.00405456    -0.81400
O860        O  0.48619073  0.05123713  0.84661891    -0.66100
O861        O  0.49791008  0.11334644  0.91833134    -1.12700
C862        C  0.39330503  0.06646157  0.90774333     1.05500
O863        O  0.46071907  0.06388575  0.80567078    -0.79300
O864        O  0.44700258  0.10530915  0.82812539    -0.66900
Ni865      Ni  0.52542560  0.12398981  0.96265276     1.34900
C866        C  0.45387643  0.12729576  0.85154039     0.84200
O867        O  0.53465370  0.09744436  0.87630196    -0.79800
O868        O  0.55729150  0.13249573  0.92445824    -0.90100
C869        C  0.47262735  0.04819231  0.81325634     0.83800
O870        O  0.52025395  0.08548540  0.97524672    -0.68300
O871        O  0.39815792  0.06248595  0.87037229    -0.87600
C872        C  0.50377156  0.05984962  0.95979813     0.84600
C873        C  0.55799448  0.11862852  0.89245270     1.06200
H874        H  0.44258235  0.04898482  0.90189199     0.38000
O875        O  0.45202002  0.06830874  0.88866938    -1.10300
O876        O  0.45611971  0.12573509  0.89046757    -0.66900
Ni877      Ni  0.45620769  0.09673157  0.92819029     1.26300
O878        O  0.49039368  0.05605874  0.92578841    -0.67200
O879        O  0.41389302  0.07868775  0.93481120    -0.79400
C880        C  0.47535004  0.12315331  0.00463917     0.84000
O881        O  0.46231987  0.12366504  0.97180040    -0.66600
Ni882      Ni  0.43051844  0.06398636  0.83968435     1.27400
Ni883      Ni  0.49322786  0.08254761  0.88261615     1.26100
H884        H  0.50498018  0.13116560  0.90181777     0.38500
O885        O  0.21849686  0.06058538  0.67304050    -0.81400
O886        O  0.28678841  0.11725788  0.51566218    -0.66100
O887        O  0.22428749  0.06700529  0.58749429    -1.12700
C888        C  0.27058488  0.00820053  0.57780065     1.05500
O889        O  0.27265533  0.07845030  0.47548314    -0.79300
O890        O  0.23199226  0.02260325  0.49793966    -0.66900
Ni891      Ni  0.21366757  0.08428650  0.63124959     1.34900
C892        C  0.20996417  0.00750587  0.52133636     0.84200
O893        O  0.24127809  0.12055581  0.54409717    -0.79800
O894        O  0.20727727  0.10932072  0.59304815    -0.90100
C895        C  0.28895643  0.10623501  0.48230909     0.83800
O896        O  0.25238556  0.11646823  0.64528791    -0.68300
O897        O  0.27489385  0.01743402  0.54051954    -0.87600
C898        C  0.27792653  0.12615199  0.62962901     0.84600
C899        C  0.22094575  0.12368840  0.56069002     1.06200
H900        H  0.28800950  0.07535676  0.57180297     0.38000
O901        O  0.26884317  0.06557763  0.55846647    -1.10300
O902        O  0.21122189  0.01177975  0.56015538    -0.66900
Ni903      Ni  0.24022780  0.04112799  0.59786788     1.26300
O904        O  0.28184437  0.11740664  0.59496463    -0.67200
O905        O  0.25802541  0.01630209  0.60477229    -0.79400
C906        C  0.21225105  0.03345722  0.67393475     0.84000
O907        O  0.21297525  0.02013515  0.64150089    -0.66600
Ni908      Ni  0.27305428  0.04823514  0.50957540     1.27400
Ni909      Ni  0.25540960  0.09329536  0.55176185     1.26100
H910        H  0.20665691  0.05633936  0.57082063     0.38500
O911        O  0.44007928  0.17043339  0.16538890    -0.81400
O912        O  0.37994429  0.16744108  0.32848179    -0.66100
O913        O  0.43722405  0.17500663  0.25053816    -1.12700
C914        C  0.38807253  0.06922986  0.26916044     1.05500
O915        O  0.39436558  0.14278544  0.36767245    -0.79300
O916        O  0.42993793  0.12229323  0.34346643    -0.66900
Ni917      Ni  0.44509216  0.20062024  0.20391260     1.34900
C918        C  0.45135168  0.12906208  0.31902408     0.84200
O919        O  0.42544622  0.21415823  0.29546590    -0.79800
O920        O  0.45147031  0.23406067  0.23779533    -0.90100
C921        C  0.37810662  0.15411070  0.36164252     0.83800
O922        O  0.40530351  0.19081374  0.19167731    -0.68300
O923        O  0.38333115  0.07525860  0.30539091    -0.87600
C924        C  0.38150517  0.17866022  0.21253655     0.84600
C925        C  0.44199236  0.23638491  0.27296543     1.06200
H926        H  0.37359296  0.12148285  0.27272125     0.38000
O927        O  0.39313965  0.13051661  0.28490282    -1.10300
O928        O  0.44966265  0.13316228  0.28064513    -0.66900
Ni929      Ni  0.41979718  0.13233244  0.24402567     1.26300
O930        O  0.38035339  0.17026196  0.24960499    -0.67200
O931        O  0.40107446  0.08920881  0.24105509    -0.79400
C932        C  0.44576884  0.14927665  0.16588937     0.84000
O933        O  0.44516723  0.13593178  0.19912294    -0.66600
Ni934      Ni  0.38925305  0.10977177  0.33496005     1.27400
Ni935      Ni  0.40882374  0.17240052  0.28956304     1.26100
H936        H  0.45590460  0.18266357  0.26484126     0.38500
C937        C  0.30301158  0.11791678  0.40997445    -0.20800
C938        C  0.31073457  0.12513001  0.45131078    -0.07400
C939        C  0.34031751  0.14647938  0.46209864     0.13500
C940        C  0.36205601  0.15763970  0.43134154    -0.20900
C941        C  0.35457038  0.14815920  0.39067127    -0.07400
C942        C  0.32467697  0.12908171  0.37937923     0.13500
C943        C  0.31587996  0.11835491  0.33576143    -0.24200
H944        H  0.28021678  0.10187754  0.40196231     0.14800
H945        H  0.38515696  0.17248469  0.43930316     0.14800
C946        C  0.34957881  0.15587103  0.50602841    -0.24200
H947        H  0.29160549  0.10272852  0.33283705     0.05000
H948        H  0.32748420  0.10650182  0.32548126     0.08200
H949        H  0.32185037  0.13759965  0.31512067     0.08200
H950        H  0.34468731  0.13614214  0.52515053     0.08200
H951        H  0.33748154  0.16666408  0.51842740     0.08200
H952        H  0.37373094  0.17217781  0.50854794     0.05000
C953        C  0.47237558  0.11722846  0.08081148    -0.20800
C954        C  0.46586288  0.12858135  0.04532645    -0.07400
C955        C  0.45109901  0.14496310  0.04995964     0.13500
C956        C  0.44465867  0.15062252  0.08959151    -0.20900
C957        C  0.45198046  0.14013312  0.12527581    -0.07400
C958        C  0.46532793  0.12237818  0.12053862     0.13500
C959        C  0.47264980  0.10902560  0.15674272    -0.24200
H960        H  0.48308476  0.10407479  0.07752864     0.14800
H961        H  0.43369850  0.16356127  0.09251232     0.14800
C962        C  0.44247234  0.15722690  0.01370464    -0.24200
H963        H  0.48323077  0.09603951  0.14705626     0.05000
H964        H  0.45201672  0.09354399  0.17366621     0.08200
H965        H  0.48837653  0.12704323  0.17746486     0.08200
H966        H  0.42593990  0.13861795  0.99440251     0.08200
H967        H  0.46243740  0.17214080  0.99516041     0.08200
H968        H  0.43214880  0.17043362  0.02346816     0.05000
C969        C  0.31300728  0.97556031  0.63188838    -0.20800
C970        C  0.31502674  0.95772701  0.60062038    -0.07400
C971        C  0.29850326  0.95354283  0.56403242     0.13500
C972        C  0.28257714  0.96872879  0.55888446    -0.20900
C973        C  0.28228842  0.98800441  0.58915585    -0.07400
C974        C  0.29708335  0.99064927  0.62670383     0.13500
C975        C  0.29768696  0.01064051  0.66072297    -0.24200
H976        H  0.32494023  0.97878830  0.66046777     0.14800
H977        H  0.27091177  0.96623067  0.53021591     0.14800
C978        C  0.29739981  0.93330345  0.53007009    -0.24200
H979        H  0.31102999  0.01074249  0.68745202     0.05000
H980        H  0.27476419  0.00272070  0.67182203     0.08200
H981        H  0.30767690  0.03393751  0.64932008     0.08200
H982        H  0.28924854  0.91050143  0.54243964     0.08200
H983        H  0.31977785  0.94212434  0.51636631     0.08200
H984        H  0.28216491  0.93155337  0.50491466     0.05000
C985        C  0.45196177  0.97445361  0.76454585    -0.20800
C986        C  0.45053162  0.98135241  0.72328520    -0.07400
C987        C  0.46086588  0.01116075  0.71126111     0.13500
C988        C  0.47070938  0.03323140  0.74137010    -0.20900
C989        C  0.46989153  0.02603746  0.78303615    -0.07400
C990        C  0.46168081  0.99655727  0.79482022     0.13500
C991        C  0.46093968  0.98775268  0.83924583    -0.24200
H992        H  0.44377172  0.95141635  0.77330394     0.14800
H993        H  0.47721974  0.05590608  0.73262105     0.14800
C994        C  0.45894634  0.01939214  0.66731008    -0.24200
H995        H  0.45293640  0.96355752  0.84267976     0.05000
H996        H  0.44582657  0.99275330  0.85709195     0.08200
H997        H  0.48365744  0.00018950  0.85233871     0.08200
H998        H  0.43553518  0.00691633  0.65664164     0.08200
H999        H  0.47277761  0.01397453  0.64742524     0.08200
H1000       H  0.46703312  0.04359512  0.66378550     0.05000
C1001       C  0.29885371  0.85791060  0.41603550    -0.20800
C1002       C  0.31623257  0.87201422  0.38077523    -0.07400
C1003       C  0.34682367  0.89307177  0.38638570     0.13500
C1004       C  0.35896949  0.89842559  0.42622316    -0.20900
C1005       C  0.34162764  0.88390689  0.46110876    -0.07400
C1006       C  0.31097644  0.86372702  0.45587994     0.13500
C1007       C  0.29097548  0.84751350  0.49183036    -0.24200
H1008       H  0.27538863  0.84196115  0.41264019     0.14800
H1009       H  0.38245082  0.91421604  0.43016920     0.14800
C1010       C  0.36717046  0.90996521  0.35103090    -0.24200
H1011       H  0.26788891  0.83162384  0.48185524     0.05000
H1012       H  0.29004885  0.86377836  0.51295282     0.08200
H1013       H  0.29943128  0.83462987  0.50860507     0.08200
H1014       H  0.35922618  0.92365034  0.33525127     0.08200
H1015       H  0.36800828  0.89408454  0.32908747     0.08200
H1016       H  0.39025758  0.92540169  0.36146712     0.05000
C1017       C  0.35673081  0.98474526  0.27912649    -0.20800
C1018       C  0.34654343  0.97501317  0.23898323    -0.07400
C1019       C  0.35333930  0.99718162  0.20798216     0.13500
C1020       C  0.36856001  0.02759264  0.21863895    -0.20900
C1021       C  0.37647588  0.03702235  0.25934751    -0.07400
C1022       C  0.37108835  0.01512374  0.28992595     0.13500
C1023       C  0.37997699  0.02312669  0.33433341    -0.24200
H1024       H  0.35232858  0.96833534  0.30289103     0.14800
H1025       H  0.37283452  0.04413855  0.19511850     0.14800
C1026       C  0.34379733  0.98965516  0.16365852    -0.24200
H1027       H  0.37646684  0.00350918  0.35268450     0.05000
H1028       H  0.36627467  0.03145056  0.34877558     0.08200
H1029       H  0.40389290  0.04029111  0.33632875     0.08200
H1030       H  0.31919325  0.97654301  0.16166776     0.08200
H1031       H  0.35366961  0.97700680  0.15013950     0.08200
H1032       H  0.35119056  0.00993022  0.14441866     0.05000
C1033       C  0.18726910  0.97476949  0.75943700    -0.20800
C1034       C  0.19487903  0.99255884  0.79514031    -0.07400
C1035       C  0.20793007  0.02377927  0.79041178     0.13500
C1036       C  0.21318648  0.03609295  0.75059374    -0.20900
C1037       C  0.20568235  0.01826692  0.71490379    -0.07400
C1038       C  0.19227417  0.98698069  0.71969579     0.13500
C1039       C  0.18248526  0.96595560  0.68352184    -0.24200
H1040       H  0.17717005  0.95079598  0.76243956     0.14800
H1041       H  0.22341307  0.06007703  0.74749667     0.14800
C1042       C  0.21575919  0.04434929  0.82678395    -0.24200
H1043       H  0.17107185  0.94221130  0.69340091     0.05000
H1044       H  0.20204658  0.97005574  0.66496456     0.08200
H1045       H  0.16665027  0.96905667  0.66421184     0.08200
H1046       H  0.23297129  0.04343639  0.84571363     0.08200
H1047       H  0.19565054  0.03772423  0.84570043     0.08200
H1048       H  0.22477876  0.06792552  0.81714815     0.05000
C1049       C  0.34173123  0.05318955  0.88874624    -0.20800
C1050       C  0.36165236  0.05485964  0.91938055    -0.07400
C1051       C  0.35014659  0.04195034  0.95824822     0.13500
C1052       C  0.31925027  0.02598640  0.96422265    -0.20900
C1053       C  0.29900437  0.02219957  0.93256471    -0.07400
C1054       C  0.31074720  0.03727240  0.89472974     0.13500
C1055       C  0.29117147  0.03678983  0.86023869    -0.24200
H1056       H  0.35048178  0.06369297  0.85920285     0.14800
H1057       H  0.31097046  0.01538720  0.99380967     0.14800
C1058       C  0.36998825  0.04340908  0.99310722    -0.24200
H1059       H  0.30433035  0.05109869  0.83400427     0.05000
H1060       H  0.27685259  0.04539286  0.87157593     0.08200
H1061       H  0.27732791  0.01377424  0.84830016     0.08200
H1062       H  0.38510567  0.06701115  0.00198200     0.08200
H1063       H  0.38317144  0.03301956  0.98364458     0.08200
H1064       H  0.35707144  0.03136828  0.02088613     0.05000
C1065       C  0.18030829  0.88099172  0.09371155    -0.20800
C1066       C  0.18534759  0.87760647  0.05243379    -0.07400
C1067       C  0.19827935  0.86029398  0.04154925     0.13500
C1068       C  0.21040225  0.85105359  0.07268319    -0.20900
C1069       C  0.20869110  0.85794462  0.11379035    -0.07400
C1070       C  0.19161655  0.87105741  0.12482040     0.13500
C1071       C  0.18754042  0.87718192  0.16898313    -0.24200
H1072       H  0.16951753  0.89353989  0.10155485     0.14800
H1073       H  0.22274060  0.84005506  0.06484408     0.14800
C1074       C  0.20127481  0.85339509  0.99739960    -0.24200
H1075       H  0.17432147  0.88848738  0.17146074     0.05000
H1076       H  0.20947590  0.89183874  0.18350784     0.08200
H1077       H  0.17554134  0.85584479  0.18628370     0.08200
H1078       H  0.21478008  0.87436959  0.97980396     0.08200
H1079       H  0.17887367  0.84045315  0.98338777     0.08200
H1080       H  0.21219559  0.83979834  0.99486719     0.05000
C1081       C  0.48256986  0.87243076  0.60093296    -0.20800
C1082       C  0.46415713  0.87767651  0.62669372    -0.07400
C1083       C  0.46684555  0.87588061  0.66987173     0.13500
C1084       C  0.49008966  0.87268523  0.68599621    -0.20900
C1085       C  0.51102654  0.87131752  0.66036018    -0.07400
C1086       C  0.50588624  0.86912411  0.61704368     0.13500
C1087       C  0.52468639  0.86350086  0.58722992    -0.24200
H1088       H  0.47982416  0.87266218  0.56790008     0.14800
H1089       H  0.49280061  0.87299648  0.71907110     0.14800
C1090       C  0.44532400  0.87736504  0.69941784    -0.24200
H1091       H  0.51537731  0.85938368  0.55559507     0.05000
H1092       H  0.52562560  0.84345531  0.59695115     0.08200
H1093       H  0.54741531  0.88316847  0.58548401     0.08200
H1094       H  0.42219816  0.86067917  0.69062713     0.08200
H1095       H  0.44813309  0.90001108  0.69945980     0.08200
H1096       H  0.44890061  0.87239008  0.73147479     0.05000
C1097       C  0.69036023  0.88477191  0.59422257    -0.20800
C1098       C  0.68174825  0.88293886  0.55306616    -0.07400
C1099       C  0.65132168  0.86665859  0.54221497     0.13500
C1100       C  0.63021635  0.85387156  0.57338463    -0.20900
C1101       C  0.63874510  0.85851010  0.61469463    -0.07400
C1102       C  0.66912281  0.87308619  0.62547917     0.13500
C1103       C  0.67929088  0.87908835  0.66964964    -0.24200
H1104       H  0.71375934  0.89740106  0.60205245     0.14800
H1105       H  0.60680243  0.84272436  0.56553804     0.14800
C1106       C  0.63985318  0.86489247  0.49905669    -0.24200
H1107       H  0.70389417  0.89163539  0.67216398     0.05000
H1108       H  0.67090615  0.85769297  0.68651076     0.08200
H1109       H  0.67087280  0.89263314  0.68447684     0.08200
H1110       H  0.62751755  0.84125362  0.48898625     0.08200
H1111       H  0.65744287  0.87782160  0.47635028     0.08200
H1112       H  0.62449587  0.87387262  0.49855743     0.05000
C1113       C  0.63921636  0.14142292  0.87247013    -0.20800
C1114       C  0.63707214  0.13010070  0.83248739    -0.07400
C1115       C  0.60984119  0.11852048  0.81115903     0.13500
C1116       C  0.58531624  0.11705580  0.83103053    -0.20900
C1117       C  0.58670591  0.12638971  0.87204128    -0.07400
C1118       C  0.61454341  0.14004988  0.89239214     0.13500
C1119       C  0.61841477  0.15235454  0.93531720    -0.24200
H1120       H  0.66020255  0.15070224  0.88867228     0.14800
H1121       H  0.56440918  0.10740615  0.81457799     0.14800
C1122       C  0.60568917  0.10584168  0.76835554    -0.24200
H1123       H  0.64163916  0.16197561  0.94632777     0.05000
H1124       H  0.60377593  0.13434797  0.95702764     0.08200
H1125       H  0.61293155  0.17043717  0.93579664     0.08200
H1126       H  0.61091541  0.08757150  0.76801315     0.08200
H1127       H  0.62035867  0.12365375  0.74644361     0.08200
H1128       H  0.58250596  0.09646454  0.75729923     0.05000
C1129       C  0.62910012  0.01427279  0.78597817    -0.20800
C1130       C  0.64538079  0.03462910  0.75417625    -0.07400
C1131       C  0.64404685  0.02301951  0.71439326     0.13500
C1132       C  0.62812317  0.99191176  0.70824313    -0.20900
C1133       C  0.61350068  0.97131228  0.74059735    -0.07400
C1134       C  0.61328777  0.98304643  0.77990228     0.13500
C1135       C  0.59706408  0.96316046  0.81602263    -0.24200
H1136       H  0.62936442  0.02284661  0.81641857     0.14800
H1137       H  0.62810531  0.98369979  0.67766200     0.14800
C1138       C  0.66046507  0.04294983  0.67837460    -0.24200
H1139       H  0.59867860  0.97624524  0.84386323     0.05000
H1140       H  0.60677887  0.94903692  0.82391094     0.08200
H1141       H  0.57313425  0.94887483  0.80852513     0.08200
H1142       H  0.68459963  0.05609140  0.68523858     0.08200
H1143       H  0.65182467  0.05819897  0.67182760     0.08200
H1144       H  0.65768711  0.02998265  0.64994601     0.05000
C1145       C  0.79350090  0.01994977  0.28752734    -0.20800
C1146       C  0.78445533  0.98946711  0.28967242    -0.07400
C1147       C  0.78086968  0.97374901  0.25216667     0.13500
C1148       C  0.78768905  0.98918642  0.21465753    -0.20900
C1149       C  0.79791081  0.01976154  0.21282284    -0.07400
C1150       C  0.80010587  0.03525472  0.24976546     0.13500
C1151       C  0.80856096  0.06766988  0.24985165    -0.24200
H1152       H  0.79565190  0.03206371  0.31562455     0.14800
H1153       H  0.78559925  0.97729239  0.18634315     0.14800
C1154       C  0.76973852  0.94066974  0.25036699    -0.24200
H1155       H  0.80652433  0.07524340  0.28096678     0.05000
H1156       H  0.79373848  0.07112390  0.22882968     0.08200
H1157       H  0.83199914  0.08182634  0.24010716     0.08200
H1158       H  0.74741760  0.92802310  0.26474602     0.08200
H1159       H  0.78561412  0.93561412  0.26609122     0.08200
H1160       H  0.76747690  0.93252564  0.21826628     0.05000
C1161       C  0.76862206  0.14565081  0.93351583    -0.20800
C1162       C  0.77778671  0.14745297  0.89260252    -0.07400
C1163       C  0.80012459  0.14060409  0.88252130     0.13500
C1164       C  0.81007111  0.12869550  0.91302975    -0.20900
C1165       C  0.79873161  0.12439380  0.95290069    -0.07400
C1166       C  0.77896755  0.13424145  0.96401975     0.13500
C1167       C  0.76709018  0.13070005  0.00724794    -0.24200
H1168       H  0.75194058  0.15148708  0.94113420     0.14800
H1169       H  0.82565775  0.12140104  0.90541023     0.14800
C1170       C  0.81209425  0.14373744  0.83944013    -0.24200
H1171       H  0.75111417  0.13882024  0.01004828     0.05000
H1172       H  0.78567837  0.14375956  0.02887643     0.08200
H1173       H  0.75543944  0.10680389  0.01636907     0.08200
H1174       H  0.82275088  0.16740168  0.82942822     0.08200
H1175       H  0.79384810  0.12944368  0.81796707     0.08200
H1176       H  0.82911916  0.13691364  0.83755371     0.05000
C1177       C  0.67662720  0.14744015  0.54773623    -0.20800
C1178       C  0.64771814  0.12316434  0.54508247    -0.07400
C1179       C  0.63362889  0.10671204  0.58119176     0.13500
C1180       C  0.64862908  0.11553643  0.61905422    -0.20900
C1181       C  0.67729985  0.14061722  0.62224339    -0.07400
C1182       C  0.69152200  0.15673117  0.58558231     0.13500
C1183       C  0.72206210  0.18424680  0.58533084    -0.24200
H1184       H  0.68726647  0.15994713  0.52001404     0.14800
H1185       H  0.63765810  0.10275999  0.64643259     0.14800
C1186       C  0.60302350  0.07938028  0.58006521    -0.24200
H1187       H  0.72873461  0.19418775  0.55411660     0.05000
H1188       H  0.73889948  0.17850435  0.59555756     0.08200
H1189       H  0.72237023  0.20158263  0.60560191     0.08200
H1190       H  0.60251646  0.06315437  0.55742354     0.08200
H1191       H  0.58626550  0.08564923  0.57162417     0.08200
H1192       H  0.59646619  0.06804742  0.61046325     0.05000
C1193       C  0.52142364  0.12358962  0.33312897    -0.20800
C1194       C  0.52373975  0.12388219  0.37628957    -0.07400
C1195       C  0.50419482  0.12919524  0.39995857     0.13500
C1196       C  0.48227155  0.13284756  0.37999267    -0.20900
C1197       C  0.47867905  0.13072043  0.33684776    -0.07400
C1198       C  0.49920086  0.12669323  0.31309806     0.13500
C1199       C  0.49723342  0.12409667  0.26687513    -0.24200
H1200       H  0.53655981  0.11976678  0.31483901     0.14800
H1201       H  0.46697410  0.13618440  0.39861428     0.14800
C1202       C  0.50500896  0.12919817  0.44629725    -0.24200
H1203       H  0.51483286  0.12049420  0.25373614     0.05000
H1204       H  0.49999232  0.14497921  0.25321742     0.08200
H1205       H  0.47547975  0.10480923  0.25771233     0.08200
H1206       H  0.52661974  0.14773586  0.45730681     0.08200
H1207       H  0.50186126  0.10758055  0.45766341     0.08200
H1208       H  0.48720275  0.13229043  0.45984708     0.05000
C1209       C  0.52195548  0.02247833  0.52007245    -0.20800
C1210       C  0.51710311  0.02674712  0.47872658    -0.07400
C1211       C  0.49059395  0.00520720  0.45928094     0.13500
C1212       C  0.46948493  0.98033332  0.48190456    -0.20900
C1213       C  0.47422436  0.97625857  0.52339812    -0.07400
C1214       C  0.50119729  0.99724461  0.54235540     0.13500
C1215       C  0.50897579  0.99229946  0.58519539    -0.24200
H1216       H  0.54249353  0.03868424  0.53474265     0.14800
H1217       H  0.44894699  0.96408938  0.46723432     0.14800
C1218       C  0.48396211  0.00880522  0.41517910    -0.24200
H1219       H  0.53152473  0.01016503  0.59446107     0.05000
H1220       H  0.50845381  0.97065319  0.58661869     0.08200
H1221       H  0.49296006  0.99202919  0.60768391     0.08200
H1222       H  0.50050617  0.00810331  0.39452514     0.08200
H1223       H  0.48466633  0.03041710  0.41120142     0.08200
H1224       H  0.46162753  0.99068783  0.40559616     0.05000
C1225       C  0.68984700  0.04340784  0.37490778    -0.20800
C1226       C  0.67853604  0.05171501  0.40872773    -0.07400
C1227       C  0.68622453  0.04723576  0.44880250     0.13500
C1228       C  0.70275572  0.03283852  0.45367759    -0.20900
C1229       C  0.71135894  0.02169968  0.42001513    -0.07400
C1230       C  0.70590752  0.02843766  0.37986273     0.13500
C1231       C  0.71601703  0.01938433  0.34192559    -0.24200
H1232       H  0.68521079  0.04766963  0.34392884     0.14800
H1233       H  0.70780319  0.02908156  0.48468393     0.14800
C1234       C  0.67630095  0.05627891  0.48696599    -0.24200
H1235       H  0.71027468  0.02709061  0.31328405     0.05000
H1236       H  0.70510092  0.99471022  0.34033296     0.08200
H1237       H  0.74052540  0.02942287  0.34254186     0.08200
H1238       H  0.68514086  0.08072802  0.48669237     0.08200
H1239       H  0.68444656  0.05094848  0.51551243     0.08200
H1240       H  0.65167407  0.04412796  0.48858334     0.05000
C1241       C  0.54962921  0.88284928  0.94573410    -0.20800
C1242       C  0.52196292  0.88086082  0.95127801    -0.07400
C1243       C  0.50245033  0.87307070  0.91685560     0.13500
C1244       C  0.51101537  0.86707080  0.87875014    -0.20900
C1245       C  0.53824733  0.86832143  0.87391371    -0.07400
C1246       C  0.55809287  0.87691641  0.90753966     0.13500
C1247       C  0.58861744  0.88074495  0.90297233    -0.24200
H1248       H  0.56486493  0.88924118  0.97139795     0.14800
H1249       H  0.49595675  0.86045310  0.85276616     0.14800
C1250       C  0.47210024  0.86991590  0.91975772    -0.24200
H1251       H  0.60190312  0.88943695  0.93157740     0.05000
H1252       H  0.60078520  0.89685539  0.87779480     0.08200
H1253       H  0.58691572  0.85903848  0.89593477     0.08200
H1254       H  0.47422850  0.89189970  0.92612131     0.08200
H1255       H  0.45895974  0.85371791  0.94436760     0.08200
H1256       H  0.45942408  0.86163450  0.89060548     0.05000
C1257       C  0.40740811  0.89607506  0.16878709    -0.20800
C1258       C  0.40588792  0.88663279  0.12777068    -0.07400
C1259       C  0.37770502  0.87138625  0.10847006     0.13500
C1260       C  0.35249420  0.86751596  0.12980045    -0.20900
C1261       C  0.35436345  0.87856549  0.16990722    -0.07400
C1262       C  0.38228329  0.89236269  0.18999830     0.13500
C1263       C  0.38633796  0.90456956  0.23305767    -0.24200
H1264       H  0.42870819  0.90722100  0.18430406     0.14800
H1265       H  0.33118599  0.85669121  0.11430067     0.14800
C1266       C  0.37394566  0.86030139  0.06484803    -0.24200
H1267       H  0.40979461  0.91512469  0.24343366     0.05000
H1268       H  0.37268929  0.88615097  0.25479870     0.08200
H1269       H  0.37972571  0.92181711  0.23443304     0.08200
H1270       H  0.38059270  0.84312956  0.06251602     0.08200
H1271       H  0.38769235  0.87920288  0.04378320     0.08200
H1272       H  0.35051806  0.84988273  0.05440772     0.05000
C1273       C  0.52762103  0.97539190  0.25875974    -0.20800
C1274       C  0.52313432  0.98231927  0.21862320    -0.07400
C1275       C  0.52702043  0.01091773  0.20995671     0.13500
C1276       C  0.53805361  0.03256604  0.24097328    -0.20900
C1277       C  0.54482399  0.02600720  0.27980250    -0.07400
C1278       C  0.53885759  0.99703066  0.28933277     0.13500
C1279       C  0.54640556  0.98945348  0.33080675    -0.24200
H1280       H  0.52408623  0.95338144  0.26568669     0.14800
H1281       H  0.54267858  0.05502119  0.23447584     0.14800
C1282       C  0.52124308  0.01946620  0.16802221    -0.24200
H1283       H  0.54091218  0.96582487  0.33251886     0.05000
H1284       H  0.53371491  0.99304788  0.35523876     0.08200
H1285       H  0.57056004  0.00381214  0.33681612     0.08200
H1286       H  0.49762309  0.00456815  0.15943758     0.08200
H1287       H  0.53592357  0.01779696  0.14480230     0.08200
H1288       H  0.52561419  0.04275084  0.16736377     0.05000
C1289       C  0.67325105  0.97418506  0.04268307    -0.20800
C1290       C  0.69241679  0.98339260  0.07721095    -0.07400
C1291       C  0.67958001  0.97318793  0.11651066     0.13500
C1292       C  0.64844889  0.95661497  0.12017952    -0.20900
C1293       C  0.62936232  0.95058178  0.08607421    -0.07400
C1294       C  0.64219160  0.95847403  0.04648318     0.13500
C1295       C  0.62372729  0.95178648  0.00800663    -0.24200
H1296       H  0.68249636  0.98058728  0.01205025     0.14800
H1297       H  0.63896818  0.94965233  0.15062832     0.14800
C1298       C  0.69806981  0.98026446  0.15502622    -0.24200
H1299       H  0.63764056  0.95954202  0.97981063     0.05000
H1300       H  0.61061790  0.96325120  0.00901497     0.08200
H1301       H  0.60870079  0.92734690  0.00519485     0.08200
H1302       H  0.71057893  0.00472549  0.16024466     0.08200
H1303       H  0.71370848  0.97173920  0.15221285     0.08200
H1304       H  0.68415284  0.96975385  0.18271324     0.05000
C1305       C  0.49578502  0.00383281  0.04260358    -0.20800
C1306       C  0.49307063  0.98015096  0.01846285    -0.07400
C1307       C  0.49382508  0.98291019  0.97507703     0.13500
C1308       C  0.49766132  0.00930213  0.95724156    -0.20900
C1309       C  0.50036093  0.03298548  0.98131656    -0.07400
C1310       C  0.49892734  0.02997321  0.02468962     0.13500
C1311       C  0.49921310  0.05342587  0.05227711    -0.24200
H1312       H  0.49472868  0.00155964  0.07580579     0.14800
H1313       H  0.49876858  0.01155387  0.92406924     0.14800
C1314       C  0.49143157  0.95859852  0.94724151    -0.24200
H1315       H  0.49585804  0.04638904  0.08506999     0.05000
H1316       H  0.48101444  0.05752918  0.04327879     0.08200
H1317       H  0.52087058  0.07447477  0.04999557     0.08200
H1318       H  0.46923784  0.93831239  0.95058509     0.08200
H1319       H  0.50899793  0.95328338  0.95504834     0.08200
H1320       H  0.49411614  0.96533196  0.91434397     0.05000
C1321       C  0.45230603  0.17412083  0.85852587    -0.20800
C1322       C  0.45717110  0.15521205  0.83304889    -0.07400
C1323       C  0.46237137  0.16222742  0.79040316     0.13500
C1324       C  0.45930473  0.18574094  0.77417288    -0.20900
C1325       C  0.45110834  0.20238978  0.79917739    -0.07400
C1326       C  0.44917962  0.19747854  0.84234741     0.13500
C1327       C  0.44383260  0.21665759  0.87195243    -0.24200
H1328       H  0.44927291  0.16966952  0.89128513     0.14800
H1329       H  0.46176666  0.19007316  0.74136019     0.14800
C1330       C  0.47112909  0.14526337  0.76152638    -0.24200
H1331       H  0.44632215  0.21162078  0.90446147     0.05000
H1332       H  0.42092560  0.21261227  0.86859892     0.08200
H1333       H  0.46017667  0.24057341  0.86630121     0.08200
H1334       H  0.45239456  0.12218391  0.75718764     0.08200
H1335       H  0.49075269  0.14480788  0.77394745     0.08200
H1336       H  0.47716093  0.15584002  0.73060668     0.05000
C1337       C  0.33351280  0.17068984  0.71445725    -0.20800
C1338       C  0.35565370  0.19484794  0.69202878    -0.07400
C1339       C  0.35182054  0.19642603  0.64912018     0.13500
C1340       C  0.32643182  0.17352437  0.62976534    -0.20900
C1341       C  0.30436922  0.14928407  0.65212442    -0.07400
C1342       C  0.30803735  0.14782238  0.69510485     0.13500
C1343       C  0.28586114  0.12167167  0.72052048    -0.24200
H1344       H  0.33645577  0.16941815  0.74726664     0.14800
H1345       H  0.32349258  0.17483172  0.59695420     0.14800
C1346       C  0.37367990  0.22279952  0.62378025    -0.24200
H1347       H  0.29320078  0.12333223  0.75298449     0.05000
H1348       H  0.28303585  0.10059973  0.70762035     0.08200
H1349       H  0.26415083  0.12077091  0.72075131     0.08200
H1350       H  0.39551778  0.22398991  0.62312449     0.08200
H1351       H  0.37626108  0.24367196  0.63705857     0.08200
H1352       H  0.36616633  0.22124865  0.59142391     0.05000
C1353       C  0.20259411  0.05216586  0.07251404    -0.20800
C1354       C  0.20599549  0.07552900  0.04709537    -0.07400
C1355       C  0.20343984  0.07098993  0.00391852     0.13500
C1356       C  0.20053769  0.04463026  0.98733878    -0.20900
C1357       C  0.20037337  0.02241711  0.01240919    -0.07400
C1358       C  0.19991085  0.02577259  0.05602098     0.13500
C1359       C  0.19719175  0.00223405  0.08596794    -0.24200
H1360       H  0.20380904  0.05529831  0.10556056     0.14800
H1361       H  0.19988877  0.04215857  0.95421446     0.14800
C1362       C  0.20370571  0.09385091  0.97482596    -0.24200
H1363       H  0.19481854  0.00781742  0.11817732     0.05000
H1364       H  0.21741310  0.00027963  0.08490958     0.08200
H1365       H  0.17720994  0.98047040  0.07860043     0.08200
H1366       H  0.22595575  0.11426640  0.97423915     0.08200
H1367       H  0.18677298  0.09958181  0.98451653     0.08200
H1368       H  0.19846585  0.08534469  0.94280700     0.05000
C1369       C  0.35840242  0.22540783  0.93411436    -0.20800
C1370       C  0.35159636  0.21880811  0.89241253    -0.07400
C1371       C  0.32213468  0.19804297  0.88032987     0.13500
C1372       C  0.29969287  0.18679542  0.91005943    -0.20900
C1373       C  0.30629776  0.19519565  0.95121034    -0.07400
C1374       C  0.33604182  0.21371594  0.96385907     0.13500
C1375       C  0.34405972  0.22303454  0.00810724    -0.24200
H1376       H  0.38108438  0.24105400  0.94314339     0.14800
H1377       H  0.27674792  0.17235606  0.90100077     0.14800
C1378       C  0.31377870  0.18911185  0.83605066    -0.24200
H1379       H  0.36830328  0.23839052  0.01208003     0.05000
H1380       H  0.33760202  0.20312367  0.02761088     0.08200
H1381       H  0.33242239  0.23471347  0.01896474     0.08200
H1382       H  0.32571107  0.17793400  0.82441953     0.08200
H1383       H  0.31953179  0.20909064  0.81696267     0.08200
H1384       H  0.28960918  0.17323684  0.83246276     0.05000
C1385       C  0.30947922  0.17833536  0.18916243    -0.20800
C1386       C  0.30284661  0.16590904  0.14955756    -0.07400
C1387       C  0.32167273  0.15687387  0.13139275     0.13500
C1388       C  0.34703558  0.16121369  0.15277305    -0.20900
C1389       C  0.35388016  0.17391125  0.19223122    -0.07400
C1390       C  0.33484826  0.18266301  0.21061445     0.13500
C1391       C  0.34185796  0.19778898  0.25195496    -0.24200
H1392       H  0.29499830  0.18520589  0.20304987     0.14800
H1393       H  0.36147657  0.15431419  0.13878954     0.14800
C1394       C  0.31443143  0.14154162  0.09020162    -0.24200
H1395       H  0.32537846  0.20436303  0.26079517     0.05000
H1396       H  0.36411054  0.21825410  0.25110449     0.08200
H1397       H  0.34162161  0.18253469  0.27604558     0.08200
H1398       H  0.31457858  0.15669748  0.06600643     0.08200
H1399       H  0.29212688  0.12113149  0.09137959     0.08200
H1400       H  0.33079598  0.13482367  0.08133428     0.05000
C1401       C  0.36679581  0.36562323  0.79384885    -0.20800
C1402       C  0.37832353  0.35690360  0.76077968    -0.07400
C1403       C  0.37635942  0.36673711  0.72076891     0.13500
C1404       C  0.36068266  0.38210593  0.71485923    -0.20900
C1405       C  0.34682824  0.38835915  0.74761008    -0.07400
C1406       C  0.35126850  0.38104437  0.78800620     0.13500
C1407       C  0.33897246  0.38829039  0.82537644    -0.24200
H1408       H  0.36901959  0.35947516  0.82495440     0.14800
H1409       H  0.35850068  0.38850014  0.68386810     0.14800
C1410       C  0.39009985  0.36084725  0.68384209    -0.24200
H1411       H  0.34477588  0.38101241  0.85435080     0.05000
H1412       H  0.31437382  0.37670532  0.82360019     0.08200
H1413       H  0.34832111  0.41278259  0.82743281     0.08200
H1414       H  0.37963489  0.33647511  0.67861500     0.08200
H1415       H  0.41435185  0.37078174  0.68874391     0.08200
H1416       H  0.38704101  0.37087911  0.65536722     0.05000
C1417       C  0.18900153  0.21480747  0.21438816    -0.20800
C1418       C  0.20763201  0.20260692  0.21372398    -0.07400
C1419       C  0.21931728  0.19922596  0.25161486     0.13500
C1420       C  0.21079542  0.20659546  0.28873890    -0.20900
C1421       C  0.19104199  0.21752078  0.28972157    -0.07400
C1422       C  0.18056368  0.22235926  0.25151557     0.13500
C1423       C  0.16077389  0.23577779  0.24880017    -0.24200
H1424       H  0.18039247  0.21787371  0.18555150     0.14800
H1425       H  0.21945523  0.20336723  0.31740679     0.14800
C1426       C  0.24148249  0.18865165  0.25362276    -0.24200
H1427       H  0.15640218  0.23935222  0.21643643     0.05000
H1428       H  0.17159368  0.25785490  0.26421209     0.08200
H1429       H  0.13891026  0.22060354  0.26315183     0.08200
H1430       H  0.26073263  0.20278699  0.23343700     0.08200
H1431       H  0.23092667  0.16495193  0.24413309     0.08200
H1432       H  0.25013970  0.19007214  0.28528036     0.05000
C1433       C  0.22383055  0.15479704  0.49998763    -0.20800
C1434       C  0.21333115  0.14506464  0.54034753    -0.07400
C1435       C  0.19714998  0.15688676  0.55987159     0.13500
C1436       C  0.19261395  0.17811488  0.53902051    -0.20900
C1437       C  0.20389488  0.18835768  0.49925775    -0.07400
C1438       C  0.21957228  0.17625272  0.47943234     0.13500
C1439       C  0.23339276  0.18694789  0.43753865    -0.24200
H1440       H  0.23614881  0.14602342  0.48440074     0.14800
H1441       H  0.18087344  0.18757625  0.55452563     0.14800
C1442       C  0.18548193  0.14839603  0.60315679    -0.24200
H1443       H  0.24583977  0.17590619  0.42744868     0.05000
H1444       H  0.24924690  0.21136840  0.43824830     0.08200
H1445       H  0.21582488  0.18186170  0.41436355     0.08200
H1446       H  0.20409142  0.15379914  0.62464799     0.08200
H1447       H  0.16884878  0.12422071  0.60472736     0.08200
H1448       H  0.17435185  0.16066170  0.61371730     0.05000
C1449       C  0.19273962  0.33926830  0.54739155    -0.20800
C1450       C  0.18086887  0.30971451  0.56088111    -0.07400
C1451       C  0.17808858  0.30315302  0.60330021     0.13500
C1452       C  0.19059593  0.32679571  0.63121559    -0.20900
C1453       C  0.20630845  0.35640544  0.61720062    -0.07400
C1454       C  0.20598144  0.36289419  0.57520078     0.13500
C1455       C  0.22006740  0.39454119  0.55964205    -0.24200
H1456       H  0.19410999  0.34405369  0.51473561     0.14800
H1457       H  0.19021632  0.32212130  0.66381998     0.14800
C1458       C  0.16254831  0.27147807  0.61907105    -0.24200
H1459       H  0.21644072  0.39533766  0.52609455     0.05000
H1460       H  0.24437868  0.40650457  0.56507803     0.08200
H1461       H  0.21018683  0.40632084  0.57574246     0.08200
H1462       H  0.17472385  0.26004648  0.60969880     0.08200
H1463       H  0.13959094  0.25916357  0.60664310     0.08200
H1464       H  0.16111499  0.27063532  0.65318242     0.05000
C1465       C  0.31399956  0.45977954  0.95363307    -0.20800
C1466       C  0.34503959  0.47394165  0.95456531    -0.07400
C1467       C  0.36068789  0.47996726  0.91662157     0.13500
C1468       C  0.34496201  0.47333292  0.87935852    -0.20900
C1469       C  0.31395415  0.46021839  0.87835842    -0.07400
C1470       C  0.29821459  0.45250346  0.91640179     0.13500
C1471       C  0.26475637  0.43582453  0.91877965    -0.24200
H1472       H  0.30188413  0.45457745  0.98240177     0.14800
H1473       H  0.35715571  0.47865084  0.85065297     0.14800
C1474       C  0.39384711  0.49253023  0.91451502    -0.24200
H1475       H  0.25662256  0.42994127  0.95092399     0.05000
H1476       H  0.25564288  0.41463502  0.90133017     0.08200
H1477       H  0.25595595  0.44979703  0.90641026     0.08200
H1478       H  0.40000063  0.47838458  0.93291289     0.08200
H1479       H  0.40584089  0.51580989  0.92600150     0.08200
H1480       H  0.40155367  0.49310059  0.88251287     0.05000
C1481       C  0.29333403  0.32505999  0.04175929    -0.20800
C1482       C  0.28252168  0.30512379  0.07563326    -0.07400
C1483       C  0.28667761  0.31743724  0.11556534     0.13500
C1484       C  0.30247512  0.34860917  0.12035022    -0.20900
C1485       C  0.31523187  0.36840742  0.08678506    -0.07400
C1486       C  0.30982943  0.35626632  0.04669796     0.13500
C1487       C  0.32234670  0.37566163  0.00895961    -0.24200
H1488       H  0.28989397  0.31622882  0.01082727     0.14800
H1489       H  0.30576049  0.35756566  0.15120412     0.14800
C1490       C  0.27566087  0.29828988  0.15373421    -0.24200
H1491       H  0.31641901  0.36225538  0.98030738     0.05000
H1492       H  0.34695832  0.38877390  0.01086965     0.08200
H1493       H  0.31335661  0.39096471  0.00629732     0.08200
H1494       H  0.28639874  0.28454691  0.15659804     0.08200
H1495       H  0.25115211  0.28369698  0.15236319     0.08200
H1496       H  0.28096448  0.31188835  0.18213206     0.05000
C1497       C  0.47237828  0.36755651  0.58087196    -0.20800
C1498       C  0.46036572  0.34919361  0.54585234    -0.07400
C1499       C  0.44209223  0.31805421  0.55196675     0.13500
C1500       C  0.43694170  0.30646458  0.59226165    -0.20900
C1501       C  0.44965637  0.32484859  0.62701895    -0.07400
C1502       C  0.46756697  0.35593979  0.62098965     0.13500
C1503       C  0.48285378  0.37708601  0.65624081    -0.24200
H1504       H  0.48622472  0.39147321  0.57703017     0.14800
H1505       H  0.42306225  0.28259740  0.59652727     0.14800
C1506       C  0.42854506  0.29664049  0.51656912    -0.24200
H1507       H  0.49727120  0.40041696  0.64548903     0.05000
H1508       H  0.49711755  0.37039982  0.67315579     0.08200
H1509       H  0.46612954  0.37696613  0.67741294     0.08200
H1510       H  0.44634820  0.29848106  0.49594128     0.08200
H1511       H  0.41320941  0.30162145  0.49916726     0.08200
H1512       H  0.41553385  0.27310634  0.52722537     0.05000
C1513       C  0.44403883  0.30977709  0.28723379    -0.20800
C1514       C  0.45115270  0.31538479  0.32951332    -0.07400
C1515       C  0.45977420  0.29700598  0.35077520     0.13500
C1516       C  0.45848288  0.27250088  0.33039474    -0.20900
C1517       C  0.44943370  0.26598953  0.28919019    -0.07400
C1518       C  0.44305515  0.28543013  0.26694873     0.13500
C1519       C  0.43352280  0.27963695  0.22250813    -0.24200
H1520       H  0.43805079  0.32384955  0.26994895     0.14800
H1521       H  0.46361168  0.25757866  0.34721388     0.14800
C1522       C  0.47001733  0.30247933  0.39491419    -0.24200
H1523       H  0.42852537  0.29659388  0.21009085     0.05000
H1524       H  0.41320347  0.25739165  0.21939251     0.08200
H1525       H  0.45156452  0.28035651  0.20355880     0.08200
H1526       H  0.45160703  0.29934065  0.41530147     0.08200
H1527       H  0.48926696  0.32544064  0.39822404     0.08200
H1528       H  0.47722384  0.28674117  0.40549649     0.05000
C1529       C  0.45611646  0.47303953  0.29439520    -0.20800
C1530       C  0.47124226  0.45861107  0.28133171    -0.07400
C1531       C  0.47838032  0.45894482  0.23953041     0.13500
C1532       C  0.46744563  0.47118931  0.21094544    -0.20900
C1533       C  0.44878518  0.48188386  0.22352557    -0.07400
C1534       C  0.44431738  0.48437633  0.26576940     0.13500
C1535       C  0.42665310  0.49825541  0.28070258    -0.24200
H1536       H  0.45129303  0.47310738  0.32682684     0.14800
H1537       H  0.47127264  0.46993905  0.17842906     0.14800
C1538       C  0.49677093  0.44577448  0.22507026    -0.24200
H1539       H  0.42701174  0.49985867  0.31478469     0.05000
H1540       H  0.40309667  0.48465583  0.27114345     0.08200
H1541       H  0.43625733  0.52115425  0.26792499     0.08200
H1542       H  0.48512276  0.42147783  0.23160834     0.08200
H1543       H  0.51854102  0.45685493  0.24111977     0.08200
H1544       H  0.50101410  0.44889217  0.19144019     0.05000
C1545       C  0.33739837  0.30522041  0.38371821    -0.20800
C1546       C  0.35692654  0.32469184  0.41388628    -0.07400
C1547       C  0.34504784  0.32838096  0.45084134     0.13500
C1548       C  0.31418763  0.31298397  0.45634785    -0.20900
C1549       C  0.29433269  0.29401734  0.42586097    -0.07400
C1550       C  0.30634251  0.28983019  0.38909966     0.13500
C1551       C  0.28694567  0.26936434  0.35537471    -0.24200
H1552       H  0.34655886  0.30251994  0.35522985     0.14800
H1553       H  0.30558152  0.31672526  0.48460328     0.14800
C1554       C  0.36454375  0.34980775  0.48373819    -0.24200
H1555       H  0.30030742  0.26789064  0.32988192     0.05000
H1556       H  0.27297829  0.27784670  0.34208837     0.08200
H1557       H  0.27260016  0.24650298  0.36779694     0.08200
H1558       H  0.37778728  0.37262387  0.47062539     0.08200
H1559       H  0.37965442  0.34252625  0.49642094     0.08200
H1560       H  0.35133637  0.35090607  0.50974345     0.05000
C1561       C  0.50862726  0.38966975  0.90175511    -0.20800
C1562       C  0.52805626  0.41318537  0.87617874    -0.07400
C1563       C  0.52536665  0.40893157  0.83293484     0.13500
C1564       C  0.50153663  0.38264014  0.81660892    -0.20900
C1565       C  0.47992611  0.36038421  0.84212038    -0.07400
C1566       C  0.48464469  0.36339010  0.88557937     0.13500
C1567       C  0.46457198  0.33951824  0.91574037    -0.24200
H1568       H  0.51114011  0.39260404  0.93480390     0.14800
H1569       H  0.49900675  0.38028284  0.78351428     0.14800
C1570       C  0.54752263  0.43198583  0.80359314    -0.24200
H1571       H  0.47349697  0.34471665  0.94757475     0.05000
H1572       H  0.46241725  0.31782125  0.90713279     0.08200
H1573       H  0.44241569  0.33762880  0.91653612     0.08200
H1574       H  0.57036538  0.43762107  0.81234419     0.08200
H1575       H  0.54580120  0.45242588  0.80390385     0.08200
H1576       H  0.54362269  0.42369248  0.77143031     0.05000
C1577       C  0.47456971  0.50490554  0.97970871    -0.20800
C1578       C  0.47686323  0.50979469  0.02240078    -0.07400
C1579       C  0.50155662  0.51164468  0.04349107     0.13500
C1580       C  0.52283521  0.50809940  0.02150497    -0.20900
C1581       C  0.52040729  0.50299075  0.97886945    -0.07400
C1582       C  0.49583000  0.50134886  0.95773992     0.13500
C1583       C  0.49115699  0.49470206  0.91235242    -0.24200
H1584       H  0.45567685  0.50337177  0.96346192     0.14800
H1585       H  0.54174523  0.50962893  0.03770636     0.00400
C1586       C  0.50624096  0.51832702  0.08886978    -0.24200
H1587       H  0.46980905  0.49224408  0.90155384     0.05000
H1588       H  0.49078650  0.47353536  0.90572021     0.08200
H1589       H  0.50921148  0.51318587  0.89455219     0.08200
H1590       H  0.48829486  0.49976033  0.10671832     0.08200
H1591       H  0.50643494  0.53940763  0.09550324     0.08200
H1592       H  0.52767673  0.52097509  0.09961121     0.05000
C1593       C  0.37477230  0.50421884  0.69147202    -0.20800
C1594       C  0.34976871  0.48796774  0.66645492    -0.07400
C1595       C  0.35126129  0.49705912  0.62479908     0.13500
C1596       C  0.37848091  0.51983496  0.60862602    -0.20900
C1597       C  0.40439171  0.53380273  0.63272973    -0.07400
C1598       C  0.40189548  0.52678716  0.67550783     0.13500
C1599       C  0.42753726  0.54250464  0.70516929    -0.24200
H1600       H  0.37370263  0.49805264  0.72357544     0.14800
H1601       H  0.37977763  0.52575217  0.57639526     0.14800
C1602       C  0.32439997  0.48318034  0.59710425    -0.24200
H1603       H  0.42039559  0.53626677  0.73762637     0.05000
H1604       H  0.43736357  0.56703750  0.70248798     0.08200
H1605       H  0.44460567  0.53622686  0.69909233     0.08200
H1606       H  0.30584484  0.48434913  0.61195411     0.08200
H1607       H  0.31753329  0.45962829  0.59046116     0.08200
H1608       H  0.32902740  0.49500875  0.56709869     0.05000
C1609       C  0.53294423  0.69254772  0.71212337    -0.20800
C1610       C  0.53787366  0.69314837  0.66933681    -0.07400
C1611       C  0.54183884  0.71811115  0.64638169     0.13500
C1612       C  0.54320535  0.74244902  0.66709293    -0.20900
C1613       C  0.54073929  0.74285958  0.71017023    -0.07400
C1614       C  0.53418724  0.71696330  0.73278566     0.13500
C1615       C  0.52994952  0.71538204  0.77873085    -0.24200
H1616       H  0.52906613  0.67318208  0.72985799     0.14800
H1617       H  0.54744818  0.76199479  0.64949098     0.14800
C1618       C  0.54611014  0.72017462  0.60038581    -0.24200
H1619       H  0.52563569  0.69366434  0.79147920     0.05000
H1620       H  0.51060585  0.71791571  0.78646585     0.08200
H1621       H  0.55020315  0.73335073  0.79378395     0.08200
H1622       H  0.52601613  0.70200056  0.58533201     0.08200
H1623       H  0.56588903  0.71849745  0.59220202     0.08200
H1624       H  0.54959927  0.74165118  0.58787236     0.05000
C1625       C  0.46862012  0.50303323  0.50340457    -0.20800
C1626       C  0.49235504  0.52434595  0.52711980    -0.07400
C1627       C  0.51901097  0.52332672  0.52879099     0.13500
C1628       C  0.52104994  0.50107587  0.50688048    -0.20900
C1629       C  0.49745351  0.48006718  0.48259621    -0.07400
C1630       C  0.47074433  0.48100646  0.48115927     0.13500
C1631       C  0.44399632  0.45848809  0.45721888    -0.24200
H1632       H  0.44812711  0.50360093  0.50229938     0.14800
H1633       H  0.54154334  0.50050637  0.50797636     0.14800
C1634       C  0.54592431  0.54636693  0.55187942    -0.24200
H1635       H  0.42453297  0.46143139  0.46197059     0.05000
H1636       H  0.43759477  0.43554524  0.46729759     0.08200
H1637       H  0.44899108  0.46109073  0.42380122     0.08200
H1638       H  0.54110515  0.54480986  0.58526606     0.08200
H1639       H  0.55235864  0.56903424  0.54048229     0.08200
H1640       H  0.56527504  0.54315240  0.54774521     0.05000
C1641       C  0.53211591  0.56919487  0.76631126    -0.20800
C1642       C  0.52219315  0.55509231  0.72809262    -0.07400
C1643       C  0.52248751  0.52838182  0.71980082     0.13500
C1644       C  0.53563469  0.51843783  0.74838440    -0.20900
C1645       C  0.54788386  0.53435150  0.78447038    -0.07400
C1646       C  0.54538368  0.55933514  0.79447588     0.13500
C1647       C  0.55825673  0.57661089  0.83372129    -0.24200
H1648       H  0.53125326  0.58918178  0.77315174     0.14800
H1649       H  0.53741584  0.49890341  0.74195538     0.14800
C1650       C  0.51050135  0.51094453  0.68053634    -0.24200
H1651       H  0.55457898  0.59584892  0.83628289     0.05000
H1652       H  0.58257384  0.58539432  0.83459137     0.08200
H1653       H  0.54769505  0.56184894  0.86069751     0.08200
H1654       H  0.52330838  0.52474526  0.65381579     0.08200
H1655       H  0.48665777  0.50389913  0.67711372     0.08200
H1656       H  0.51223361  0.49046865  0.68032503     0.05000
C1657       C  0.54913795  0.70038015  0.41336523    -0.20800
C1658       C  0.53902385  0.68267387  0.37764204    -0.07400
C1659       C  0.52281159  0.65124041  0.38229582     0.13500
C1660       C  0.51694804  0.63874394  0.42204543    -0.20900
C1661       C  0.52680420  0.65648268  0.45780852    -0.07400
C1662       C  0.54340305  0.68791181  0.45307994     0.13500
C1663       C  0.55466887  0.70878414  0.48935755    -0.24200
H1664       H  0.56180495  0.72445209  0.41032972     0.14800
H1665       H  0.50441731  0.61466734  0.42505726     0.14800
C1666       C  0.51084306  0.63050496  0.34593982    -0.24200
H1667       H  0.56625066  0.73257405  0.47969491     0.05000
H1668       H  0.57081650  0.70526768  0.50721179     0.08200
H1669       H  0.53574010  0.70488688  0.50919930     0.08200
H1670       H  0.52942468  0.63292216  0.32653878     0.08200
H1671       H  0.49598567  0.63562073  0.32758139     0.08200
H1672       H  0.49775522  0.60674198  0.35556894     0.05000
C1673       C  0.51097025  0.64676017  0.12211464    -0.20800
C1674       C  0.51373878  0.64781614  0.16536433    -0.07400
C1675       C  0.49183135  0.62358863  0.18878572     0.13500
C1676       C  0.46892040  0.59890930  0.16835365    -0.20900
C1677       C  0.46756036  0.59706659  0.12521503    -0.07400
C1678       C  0.48853065  0.62161116  0.10177588     0.13500
C1679       C  0.48873741  0.62067557  0.05543882    -0.24200
H1680       H  0.52736056  0.66519720  0.10378772     0.14800
H1681       H  0.45267580  0.58007551  0.18629784     0.14800
C1682       C  0.49310257  0.62237238  0.23506791    -0.24200
H1683       H  0.50756911  0.64128153  0.04216493     0.05000
H1684       H  0.46787313  0.61849668  0.04312034     0.08200
H1685       H  0.49089735  0.60146976  0.04511390     0.08200
H1686       H  0.49153966  0.64111285  0.24869885     0.08200
H1687       H  0.51411123  0.62354930  0.24471932     0.08200
H1688       H  0.47450962  0.60133966  0.24780148     0.05000
C1689       C  0.53109719  0.84886076  0.20763234    -0.20800
C1690       C  0.53381510  0.85224134  0.16441387    -0.07400
C1691       C  0.53894532  0.83191683  0.14180748     0.13500
C1692       C  0.54289557  0.81044563  0.16299317    -0.20900
C1693       C  0.54219678  0.80854534  0.20623822    -0.07400
C1694       C  0.53551066  0.82766661  0.22875577     0.13500
C1695       C  0.53484735  0.82726547  0.27511448    -0.24200
H1696       H  0.52684005  0.86391336  0.22547362     0.14800
H1697       H  0.54759526  0.79553313  0.14553595     0.14800
C1698       C  0.54171894  0.83328815  0.09558202    -0.24200
H1699       H  0.53072182  0.84472402  0.28770682     0.05000
H1700       H  0.55651090  0.83140397  0.28732076     0.08200
H1701       H  0.51678598  0.80534138  0.28627659     0.08200
H1702       H  0.56077898  0.85511953  0.08594582     0.08200
H1703       H  0.52088788  0.83006219  0.08150675     0.08200
H1704       H  0.54564995  0.81560669  0.08335768     0.05000
C1705       C  0.68941592  0.83642330  0.33515230    -0.20800
C1706       C  0.68837027  0.85987597  0.35499761    -0.07400
C1707       C  0.66167178  0.86084211  0.35341898     0.13500
C1708       C  0.63678258  0.83813869  0.33291668    -0.20900
C1709       C  0.63780103  0.81465972  0.31320279    -0.07400
C1710       C  0.66451556  0.81375603  0.31451436     0.13500
C1711       C  0.66666046  0.78839958  0.29568030    -0.24200
H1712       H  0.70973432  0.83553343  0.33644586     0.14800
H1713       H  0.61644799  0.83900639  0.33162215     0.14800
C1714       C  0.65945935  0.88629771  0.37174661    -0.24200
H1715       H  0.68846309  0.79025365  0.30209124     0.05000
H1716       H  0.66420221  0.78847917  0.26179900     0.08200
H1717       H  0.64905480  0.76682365  0.30856901     0.08200
H1718       H  0.67711859  0.90781530  0.35880694     0.08200
H1719       H  0.66175134  0.88637736  0.40557245     0.08200
H1720       H  0.63767926  0.88442668  0.36508941     0.05000
C1721       C  0.77685848  0.92910463  0.00422836    -0.20800
C1722       C  0.77999713  0.92858947  0.96128964    -0.07400
C1723       C  0.78834384  0.95499145  0.93864326     0.13500
C1724       C  0.79167823  0.98036321  0.95913915    -0.20900
C1725       C  0.78701484  0.98046536  0.00186773    -0.07400
C1726       C  0.78040267  0.95450255  0.02485284     0.13500
C1727       C  0.77605450  0.95264160  0.07087499    -0.24200
H1728       H  0.77101045  0.90912811  0.02189406     0.14800
H1729       H  0.79715996  0.00010956  0.94118027     0.14800
C1730       C  0.79248691  0.95638422  0.89265301    -0.24200
H1731       H  0.77113812  0.93066001  0.08336302     0.05000
H1732       H  0.75707918  0.95569517  0.07899317     0.08200
H1733       H  0.79662285  0.96996602  0.08611113     0.08200
H1734       H  0.77180787  0.93904527  0.87764559     0.08200
H1735       H  0.81120605  0.95287351  0.88477506     0.08200
H1736       H  0.79777329  0.97839852  0.87986170     0.05000
C1737       C  0.69440641  0.69287882  0.88894681    -0.20800
C1738       C  0.71611565  0.70396766  0.91957498    -0.07400
C1739       C  0.72036651  0.68360657  0.94382670     0.13500
C1740       C  0.70262740  0.65263588  0.93660491    -0.20900
C1741       C  0.68019487  0.64152407  0.90657494    -0.07400
C1742       C  0.67585914  0.66216610  0.88288719     0.13500
C1743       C  0.65027444  0.65228493  0.85317229    -0.24200
H1744       H  0.69047140  0.70841500  0.87151579     0.14800
H1745       H  0.70604483  0.63705858  0.95475193     0.14800
C1746       C  0.74361819  0.69441427  0.97715774    -0.24200
H1747       H  0.64839840  0.67140103  0.84144190     0.05000
H1748       H  0.62904599  0.63678060  0.86886416     0.08200
H1749       H  0.65339374  0.64128559  0.82601968     0.08200
H1750       H  0.73821733  0.70559382  0.00186716     0.08200
H1751       H  0.76571608  0.71033943  0.96398557     0.08200
H1752       H  0.74499754  0.67568734  0.99149911     0.05000
C1753       C  0.65807589  0.79916447  0.04311482    -0.20800
C1754       C  0.68728019  0.80981924  0.05669930    -0.07400
C1755       C  0.69369784  0.81276987  0.09918216     0.13500
C1756       C  0.67020544  0.80264001  0.12713021    -0.20900
C1757       C  0.64075203  0.78873791  0.11329799    -0.07400
C1758       C  0.63453270  0.78800497  0.07103957     0.13500
C1759       C  0.60318986  0.77501020  0.05538732    -0.24200
H1760       H  0.65338642  0.79746473  0.01040982     0.14800
H1761       H  0.67466635  0.80336994  0.15983313     0.14800
C1762       C  0.72499221  0.82602127  0.11518242    -0.24200
H1763       H  0.60260661  0.77743383  0.02149226     0.05000
H1764       H  0.59263840  0.78673185  0.06983046     0.08200
H1765       H  0.59001720  0.75086804  0.06278416     0.08200
H1766       H  0.73916860  0.84856486  0.10170168     0.08200
H1767       H  0.73421005  0.81152621  0.10722233     0.08200
H1768       H  0.72586622  0.82829366  0.14919413     0.05000
C1769       C  0.68760890  0.86208086  0.83478247    -0.20800
C1770       C  0.68574178  0.83814846  0.85764928    -0.07400
C1771       C  0.65790857  0.81128075  0.86011932     0.13500
C1772       C  0.63321554  0.80903781  0.83904081    -0.20900
C1773       C  0.63526023  0.83292023  0.81583151    -0.07400
C1774       C  0.66283101  0.86002485  0.81442424     0.13500
C1775       C  0.66616255  0.88739987  0.79309906    -0.24200
H1776       H  0.70861425  0.88289135  0.83340888     0.14800
H1777       H  0.61214873  0.78828563  0.84035246     0.14800
C1778       C  0.65402070  0.78456311  0.88396006    -0.24200
H1779       H  0.68857591  0.90715545  0.79790609     0.05000
H1780       H  0.64958318  0.89282943  0.80540359     0.08200
H1781       H  0.66302219  0.88356719  0.75951462     0.08200
H1782       H  0.65770458  0.78991627  0.91723077     0.08200
H1783       H  0.66993765  0.77790754  0.87268521     0.08200
H1784       H  0.63125513  0.76507498  0.88054732     0.05000
C1785       C  0.79033605  0.81500181  0.71178893    -0.20800
C1786       C  0.80026045  0.79450677  0.71003296    -0.07400
C1787       C  0.80245460  0.78125731  0.74717348     0.13500
C1788       C  0.79555656  0.78958247  0.78483051    -0.20900
C1789       C  0.78640218  0.81079591  0.78701202    -0.07400
C1790       C  0.78358666  0.82355240  0.74942340     0.13500
C1791       C  0.77378415  0.84640862  0.74780363    -0.24200
H1792       H  0.78857907  0.82503863  0.68341006     0.14800
H1793       H  0.79748421  0.77937786  0.81290666     0.14800
C1794       C  0.81119935  0.75759421  0.74762768    -0.24200
H1795       H  0.77315044  0.85369625  0.71583560     0.05000
H1796       H  0.78957509  0.86661749  0.76528395     0.08200
H1797       H  0.75100895  0.83677697  0.76051690     0.08200
H1798       H  0.83472866  0.76727942  0.73819413     0.08200
H1799       H  0.79657351  0.73913401  0.72658678     0.08200
H1800       H  0.80907815  0.74788268  0.77879264     0.05000
C1801       C  0.78629611  0.83971432  0.52364218    -0.20800
C1802       C  0.79127380  0.82095835  0.49791584    -0.07400
C1803       C  0.79587563  0.82788854  0.45519562     0.13500
C1804       C  0.79157217  0.85064194  0.43911829    -0.20900
C1805       C  0.78349107  0.86722944  0.46442337    -0.07400
C1806       C  0.78267908  0.86287769  0.50761998     0.13500
C1807       C  0.77864516  0.88287134  0.53727956    -0.24200
H1808       H  0.78399488  0.83555015  0.55649077     0.14800
H1809       H  0.79341959  0.85470298  0.40623670     0.14800
C1810       C  0.80570680  0.81192101  0.42610842    -0.24200
H1811       H  0.78165093  0.87808083  0.56969596     0.05000
H1812       H  0.75597150  0.87955973  0.53470131     0.08200
H1813       H  0.79539397  0.90655210  0.53083361     0.08200
H1814       H  0.78768870  0.78853369  0.42149990     0.08200
H1815       H  0.82583138  0.81243174  0.43847407     0.08200
H1816       H  0.81143955  0.82269302  0.39529831     0.05000
C1817       C  0.67577211  0.70577605  0.54293419    -0.20800
C1818       C  0.69592514  0.71697790  0.57635050    -0.07400
C1819       C  0.68407244  0.71349248  0.61647528     0.13500
C1820       C  0.65306601  0.69791015  0.62190940    -0.20900
C1821       C  0.63303747  0.68479822  0.58879223    -0.07400
C1822       C  0.64477355  0.68952968  0.54852657     0.13500
C1823       C  0.62512632  0.67646822  0.51129990    -0.24200
H1824       H  0.68424465  0.70872202  0.51183524     0.14800
H1825       H  0.64440731  0.69510120  0.65289437     0.14800
C1826       C  0.70354579  0.72506153  0.65412714    -0.24200
H1827       H  0.63821402  0.68176300  0.48242253     0.05000
H1828       H  0.61010713  0.68572409  0.50831264     0.08200
H1829       H  0.61184914  0.65179468  0.51417313     0.08200
H1830       H  0.71821874  0.74963422  0.65186285     0.08200
H1831       H  0.71710804  0.71415904  0.65719802     0.08200
H1832       H  0.69031495  0.72030667  0.68278171     0.05000
C1833       C  0.69374638  0.55987526  0.09158507    -0.20800
C1834       C  0.67571106  0.54903007  0.12693047    -0.07400
C1835       C  0.64448431  0.53275446  0.12189000     0.13500
C1836       C  0.63248635  0.52746209  0.08207015    -0.20900
C1837       C  0.65053192  0.53765594  0.04664362    -0.07400
C1838       C  0.68174932  0.55441233  0.05173241     0.13500
C1839       C  0.70284802  0.56593991  0.01573152    -0.24200
H1840       H  0.71766988  0.57267477  0.09502175     0.14800
H1841       H  0.60854870  0.51488292  0.07873777     0.14800
C1842       C  0.62342653  0.51992161  0.15782759    -0.24200
H1843       H  0.72644000  0.57772116  0.02571157     0.05000
H1844       H  0.69933346  0.58206266  0.99759856     0.08200
H1845       H  0.69930211  0.54698163  0.99609059     0.08200
H1846       H  0.62546206  0.53812219  0.17785248     0.08200
H1847       H  0.62840801  0.50470094  0.17568106     0.08200
H1848       H  0.59988895  0.50685256  0.14777000     0.05000
C1849       C  0.63549553  0.51473301  0.38111376    -0.20800
C1850       C  0.63711259  0.51837597  0.33793239    -0.07400
C1851       C  0.61276268  0.49730540  0.31397653     0.13500
C1852       C  0.58757779  0.47437273  0.33378037    -0.20900
C1853       C  0.58535450  0.47213947  0.37687016    -0.07400
C1854       C  0.60987061  0.49234048  0.40083515     0.13500
C1855       C  0.60839574  0.49188795  0.44716591    -0.24200
H1856       H  0.65388738  0.53050299  0.39993502     0.14800
H1857       H  0.56871370  0.45881987  0.31541796     0.14800
C1858       C  0.61200905  0.49957935  0.26779302    -0.24200
H1859       H  0.62901261  0.51023705  0.46098816     0.05000
H1860       H  0.60540443  0.47047521  0.45905680     0.08200
H1861       H  0.58954461  0.49457087  0.45736464     0.08200
H1862       H  0.63042841  0.49766457  0.25398678     0.08200
H1863       H  0.61394531  0.52118095  0.25895465     0.08200
H1864       H  0.59091927  0.48155103  0.25452923     0.05000
C1865       C  0.81853155  0.69257475  0.41798711    -0.20800
C1866       C  0.80209923  0.69059175  0.45282921    -0.07400
C1867       C  0.77541848  0.66420956  0.46196781     0.13500
C1868       C  0.76401855  0.64114745  0.43345392    -0.20900
C1869       C  0.77839553  0.64432526  0.39571427    -0.07400
C1870       C  0.80713765  0.66950241  0.38909217     0.13500
C1871       C  0.82556530  0.67312093  0.35144971    -0.24200
H1872       H  0.83954649  0.71282801  0.41242886     0.14800
H1873       H  0.74269898  0.62143300  0.43959540     0.14800
C1874       C  0.75814676  0.66101515  0.50072184    -0.24200
H1875       H  0.84795289  0.69337547  0.35333020     0.05000
H1876       H  0.81465689  0.67548309  0.32353981     0.08200
H1877       H  0.82870822  0.65357493  0.34842550     0.08200
H1878       H  0.75136720  0.67813395  0.50123662     0.08200
H1879       H  0.77212699  0.66387391  0.52803945     0.08200
H1880       H  0.73771786  0.63874513  0.50293989     0.05000
C1881       C  0.63311469  0.63038119  0.29332532    -0.20800
C1882       C  0.64377942  0.62081264  0.26019464    -0.07400
C1883       C  0.63692103  0.62548169  0.21968476     0.13500
C1884       C  0.62177824  0.64122902  0.21373082    -0.20900
C1885       C  0.61363718  0.65323703  0.24679504    -0.07400
C1886       C  0.61852138  0.64666855  0.28733131     0.13500
C1887       C  0.60975095  0.65766807  0.32464563    -0.24200
H1888       H  0.63728321  0.62619483  0.32459587     0.14800
H1889       H  0.61729888  0.64517621  0.18249586     0.14800
C1890       C  0.64630254  0.61516855  0.18225904    -0.24200
H1891       H  0.61569423  0.65068808  0.35376567     0.05000
H1892       H  0.58535334  0.64836302  0.32486269     0.08200
H1893       H  0.62140781  0.68242607  0.32444511     0.08200
H1894       H  0.63629575  0.59057083  0.18321985     0.08200
H1895       H  0.67088562  0.62616576  0.18104734     0.08200
H1896       H  0.63891592  0.62078256  0.15324004     0.05000
C1897       C  0.82951471  0.55270998  0.35863914    -0.20800
C1898       C  0.84611626  0.54430874  0.33393133    -0.07400
C1899       C  0.83773890  0.53724933  0.29195058     0.13500
C1900       C  0.81509293  0.54143195  0.27536848    -0.20900
C1901       C  0.80037144  0.55242790  0.29931185    -0.07400
C1902       C  0.80681287  0.55674431  0.34217301     0.13500
C1903       C  0.78984619  0.56535677  0.37130229    -0.24200
H1904       H  0.83521964  0.55754637  0.39086791     0.14800
H1905       H  0.80971634  0.53721559  0.24297267     0.14800
C1906       C  0.85223869  0.52506867  0.26415492    -0.24200
H1907       H  0.79567259  0.56437194  0.40392057     0.05000
H1908       H  0.76561230  0.54975581  0.36782152     0.08200
H1909       H  0.79518214  0.58859352  0.36532898     0.08200
H1910       H  0.85155053  0.50537325  0.27882356     0.08200
H1911       H  0.87554127  0.54242957  0.25757806     0.08200
H1912       H  0.84065447  0.51780332  0.23408235     0.05000
C1913       C  0.15310480  0.69527402  0.21265984    -0.20800
C1914       C  0.14744729  0.69589880  0.17024160    -0.07400
C1915       C  0.16671095  0.72198444  0.14751248     0.13500
C1916       C  0.18976921  0.74662854  0.16792357    -0.20900
C1917       C  0.19406362  0.74671665  0.21071378    -0.07400
C1918       C  0.17594733  0.72029172  0.23315981     0.13500
C1919       C  0.17936785  0.71881763  0.27897673    -0.24200
H1920       H  0.13874777  0.67542007  0.23039177     0.14800
H1921       H  0.20384874  0.76671823  0.15040698     0.14800
C1922       C  0.16231325  0.72508060  0.10226037    -0.24200
H1923       H  0.16275011  0.69676586  0.29183427     0.05000
H1924       H  0.17630635  0.73613503  0.29443552     0.08200
H1925       H  0.20178707  0.72247187  0.28611672     0.08200
H1926       H  0.13995933  0.72217957  0.09691893     0.08200
H1927       H  0.16478469  0.70821405  0.08455144     0.08200
H1928       H  0.17890618  0.74739420  0.09008304     0.05000
C1929       C  0.96567336  0.52118148  0.24290412    -0.20800
C1930       C  0.97309095  0.52881866  0.28412112    -0.07400
C1931       C  0.00309430  0.54660577  0.29603184     0.13500
C1932       C  0.02494639  0.55852485  0.26563832    -0.20900
C1933       C  0.01731016  0.55314032  0.22402610    -0.07400
C1934       C  0.98753859  0.53307954  0.21243462     0.13500
C1935       C  0.97819183  0.52625396  0.16805708    -0.24200
H1936       H  0.94250330  0.50742827  0.23438280     0.14800
H1937       H  0.04787425  0.57361569  0.27418205     0.14800
C1938       C  0.01193749  0.55523767  0.34026349    -0.24200
H1939       H  0.95389228  0.51080872  0.16492592     0.05000
H1940       H  0.98959532  0.51549815  0.15330706     0.08200
H1941       H  0.98383219  0.54723710  0.15164701     0.08200
H1942       H  0.00545580  0.53498619  0.35897203     0.08200
H1943       H  0.00085572  0.56711547  0.35249269     0.08200
H1944       H  0.03629499  0.57020255  0.34363338     0.05000
C1945       C  0.82045158  0.80448419  0.04349493    -0.20800
C1946       C  0.81696930  0.80138585  0.00033384    -0.07400
C1947       C  0.83753498  0.79685955  0.97757316     0.13500
C1948       C  0.85949169  0.79389580  0.99861185    -0.20900
C1949       C  0.86130266  0.79459053  0.04181513    -0.07400
C1950       C  0.84184268  0.80055857  0.06451402     0.13500
C1951       C  0.84191164  0.80053757  0.11088574    -0.24200
H1952       H  0.80513240  0.80826689  0.06137236     0.14800
H1953       H  0.87460278  0.78953021  0.98116498     0.14800
C1954       C  0.83568740  0.79328683  0.93146555    -0.24200
H1955       H  0.86357230  0.81864490  0.12245091     0.05000
H1956       H  0.83797537  0.77868211  0.12251759     0.08200
H1957       H  0.82425781  0.80421424  0.12363337     0.08200
H1958       H  0.83825352  0.81377580  0.91670076     0.08200
H1959       H  0.81404184  0.77368411  0.92269897     0.08200
H1960       H  0.85344162  0.78958938  0.91916754     0.05000
C1961       C  0.07208504  0.86150426  0.00200316    -0.20800
C1962       C  0.07277900  0.86521965  0.95908828    -0.07400
C1963       C  0.04647248  0.84799091  0.93633971     0.13500
C1964       C  0.02065922  0.82664577  0.95690268    -0.20900
C1965       C  0.02039521  0.82147341  0.99963522    -0.07400
C1966       C  0.04651812  0.83989118  0.02257208     0.13500
C1967       C  0.04852138  0.83614342  0.06829971    -0.24200
H1968       H  0.09219019  0.87503540  0.01954954     0.14800
H1969       H  0.00082977  0.81293355  0.93896974     0.14800
C1970       C  0.04586075  0.85059630  0.89019953    -0.24200
H1971       H  0.07081116  0.85229385  0.08068865     0.05000
H1972       H  0.04441917  0.81338852  0.07513635     0.08200
H1973       H  0.03206939  0.83997499  0.08466292     0.08200
H1974       H  0.06265729  0.84618063  0.87609396     0.08200
H1975       H  0.05066176  0.87330500  0.88154159     0.08200
H1976       H  0.02382270  0.83436134  0.87719662     0.05000
C1977       C  0.83184032  0.70037520  0.17339817    -0.20800
C1978       C  0.85121472  0.69698658  0.14678003    -0.07400
C1979       C  0.84767077  0.66816519  0.14242143     0.13500
C1980       C  0.82508486  0.64395529  0.16439252    -0.20900
C1981       C  0.80581445  0.64731048  0.19122791    -0.07400
C1982       C  0.80932149  0.67613987  0.19558408     0.13500
C1983       C  0.78911937  0.68168775  0.22260632    -0.24200
H1984       H  0.83418944  0.72224114  0.17673227     0.14800
H1985       H  0.82279428  0.62212444  0.16098141     0.14800
C1986       C  0.86810383  0.66260297  0.11588585    -0.24200
H1987       H  0.79412565  0.70514614  0.22042239     0.05000
H1988       H  0.79196273  0.67739962  0.25525971     0.08200
H1989       H  0.76565482  0.66698830  0.21313373     0.08200
H1990       H  0.89149186  0.67734459  0.12567703     0.08200
H1991       H  0.86546066  0.66676032  0.08307788     0.08200
H1992       H  0.86316729  0.63918238  0.11832685     0.05000
C1993       C  0.04537245  0.70875248  0.11688514    -0.20800
C1994       C  0.04635662  0.68988139  0.08654891    -0.07400
C1995       C  0.03211668  0.68740102  0.04852540     0.13500
C1996       C  0.01625664  0.70242673  0.04283267    -0.20900
C1997       C  0.01336891  0.71965285  0.07416279    -0.07400
C1998       C  0.02917643  0.72359411  0.11135314     0.13500
C1999       C  0.02910404  0.74306549  0.14561397    -0.24200
H2000       H  0.05659723  0.71112372  0.14591440     0.14800
H2001       H  0.00488774  0.69944281  0.01380713     0.14800
C2002       C  0.03180302  0.66753810  0.01447984    -0.24200
H2003       H  0.04383526  0.74462387  0.17137618     0.05000
H2004       H  0.00636674  0.73364964  0.15833543     0.08200
H2005       H  0.03717057  0.76602331  0.13390490     0.08200
H2006       H  0.02161418  0.64417082  0.02567524     0.08200
H2007       H  0.05478274  0.67545745  0.00371381     0.08200
H2008       H  0.01873664  0.66756284  0.98748009     0.05000
C2009       C  0.87921369  0.54227304  0.62118971    -0.20800
C2010       C  0.86242985  0.55650573  0.62212063    -0.07400
C2011       C  0.85499026  0.56490970  0.58417398     0.13500
C2012       C  0.86225760  0.55640977  0.54695576    -0.20900
C2013       C  0.87716706  0.54022662  0.54624067    -0.07400
C2014       C  0.88709618  0.53445278  0.58409628     0.13500
C2015       C  0.90673557  0.52083743  0.58632349    -0.24200
H2016       H  0.88590772  0.53668133  0.64987018     0.14800
H2017       H  0.85563044  0.56193261  0.51816377     0.14800
C2018       C  0.83997446  0.58328507  0.58200746    -0.24200
H2019       H  0.91461142  0.52098298  0.61814174     0.05000
H2020       H  0.92668563  0.53387550  0.56679933     0.08200
H2021       H  0.89438292  0.49720971  0.57632328     0.08200
H2022       H  0.85310943  0.60426820  0.59959204     0.08200
H2023       H  0.81706455  0.57043711  0.59440469     0.08200
H2024       H  0.83819278  0.58957926  0.54988196     0.05000
C2025       C  0.73848290  0.55393425  0.83876615    -0.20800
C2026       C  0.73818152  0.54888229  0.79618965    -0.07400
C2027       C  0.71101287  0.53736776  0.77470090     0.13500
C2028       C  0.68587771  0.53408341  0.79546921    -0.20900
C2029       C  0.68706563  0.54224702  0.83709105    -0.07400
C2030       C  0.71351948  0.55092815  0.85947220     0.13500
C2031       C  0.71644200  0.55855656  0.90458861    -0.24200
H2032       H  0.75896704  0.56167013  0.85579693     0.14800
H2033       H  0.66546577  0.52647907  0.77834017     0.14800
C2034       C  0.70856474  0.53006916  0.72953743    -0.24200
H2035       H  0.73873715  0.56477487  0.91679950     0.05000
H2036       H  0.69981435  0.53887792  0.92230469     0.08200
H2037       H  0.71311582  0.57781728  0.90973002     0.08200
H2038       H  0.71390277  0.51216186  0.72427830     0.08200
H2039       H  0.72406826  0.55028517  0.71170223     0.08200
H2040       H  0.68578362  0.52201444  0.71764975     0.05000
C2041       C  0.83104390  0.65041744  0.64886132    -0.20800
C2042       C  0.82700128  0.64876649  0.69165387    -0.07400
C2043       C  0.82732246  0.67293580  0.71227153     0.13500
C2044       C  0.83210357  0.69815526  0.68960137    -0.20900
C2045       C  0.83612066  0.69977988  0.64672149    -0.07400
C2046       C  0.83561813  0.67547016  0.62613610     0.13500
C2047       C  0.84070435  0.67593350  0.58040839    -0.24200
H2048       H  0.83088309  0.63198095  0.63307411     0.14800
H2049       H  0.83211351  0.71651993  0.70539640     0.14800
C2050       C  0.82145032  0.67184230  0.75780342    -0.24200
H2051       H  0.84192159  0.65615101  0.57027670     0.05000
H2052       H  0.86196682  0.69618427  0.57195541     0.08200
H2053       H  0.82209366  0.67564282  0.56345314     0.08200
H2054       H  0.83941010  0.67118141  0.77520325     0.08200
H2055       H  0.79978152  0.65174726  0.76523810     0.08200
H2056       H  0.82060047  0.69176102  0.76826043     0.05000
C2057       C  0.86373313  0.67702140  0.87782156    -0.20800
C2058       C  0.85283574  0.64762381  0.89156225    -0.07400
C2059       C  0.84997109  0.64120902  0.93402682     0.13500
C2060       C  0.86137518  0.66490305  0.96177899    -0.20900
C2061       C  0.87588494  0.69447142  0.94767100    -0.07400
C2062       C  0.87557969  0.70072947  0.90560720     0.13500
C2063       C  0.88794810  0.73221562  0.89012823    -0.24200
H2064       H  0.86511370  0.68170365  0.84512777     0.14800
H2065       H  0.86106627  0.66040560  0.99443499     0.14800
C2066       C  0.83538540  0.60965788  0.95014190    -0.24200
H2067       H  0.88471949  0.73281338  0.85643139     0.05000
H2068       H  0.91210681  0.74564412  0.89646687     0.08200
H2069       H  0.87642523  0.74259382  0.90563012     0.08200
H2070       H  0.84865628  0.59915331  0.94192777     0.08200
H2071       H  0.81271553  0.59641998  0.93699476     0.08200
H2072       H  0.83332725  0.60891833  0.98418349     0.05000
C2073       C  0.98318128  0.78577715  0.28567831    -0.20800
C2074       C  0.01170325  0.81114111  0.28886076    -0.07400
C2075       C  0.02588914  0.82698579  0.25198256     0.13500
C2076       C  0.01129906  0.81700931  0.21401599    -0.20900
C2077       C  0.98258175  0.79243847  0.21136791    -0.07400
C2078       C  0.96834690  0.77643691  0.24771102     0.13500
C2079       C  0.93770482  0.74911705  0.24679695    -0.24200
H2080       H  0.97215330  0.77321661  0.31316455     0.14800
H2081       H  0.02199926  0.82924934  0.18614714     0.14800
C2082       C  0.05609547  0.85490872  0.25154423    -0.24200
H2083       H  0.93111745  0.73805196  0.27736128     0.05000
H2084       H  0.93715195  0.73267510  0.22450619     0.08200
H2085       H  0.92097198  0.75535898  0.23803495     0.08200
H2086       H  0.07321085  0.84978760  0.26248272     0.08200
H2087       H  0.05583278  0.87226811  0.27112106     0.08200
H2088       H  0.06278180  0.86450705  0.22015104     0.05000
C2089       C  0.15042557  0.95577313  0.44420992    -0.20800
C2090       C  0.13549725  0.92927182  0.46719451    -0.07400
C2091       C  0.14265823  0.93016284  0.50967633     0.13500
C2092       C  0.16572804  0.95662136  0.52671784    -0.20900
C2093       C  0.18242749  0.98234916  0.50283189    -0.07400
C2094       C  0.17389279  0.98214806  0.46120842     0.13500
C2095       C  0.18923359  0.00953558  0.43428122    -0.24200
H2096       H  0.14470759  0.95550503  0.41209052     0.14800
H2097       H  0.17178960  0.95666171  0.55864127     0.14800
C2098       C  0.12631756  0.90347006  0.53777114    -0.24200
H2099       H  0.17787619  0.00603940  0.40415397     0.05000
H2100       H  0.21236803  0.01516329  0.42780233     0.08200
H2101       H  0.18922375  0.02860101  0.44967025     0.08200
H2102       H  0.13145240  0.88583961  0.52950106     0.08200
H2103       H  0.10202896  0.89464245  0.53574923     0.08200
H2104       H  0.13294747  0.90929477  0.57043637     0.05000
C2105       C  0.95275141  0.79895831  0.47766509    -0.20800
C2106       C  0.97622900  0.80239831  0.50273802    -0.07400
C2107       C  0.97482230  0.80701317  0.54567863     0.13500
C2108       C  0.94863709  0.80411269  0.56254916    -0.20900
C2109       C  0.92389649  0.79696650  0.53789332    -0.07400
C2110       C  0.92672082  0.79625805  0.49452503     0.13500
C2111       C  0.90246231  0.79266333  0.46554519    -0.24200
H2112       H  0.95397035  0.79668728  0.44471103     0.14800
H2113       H  0.94691017  0.80574921  0.59554837     0.14800
C2114       C  0.00052274  0.81488944  0.57433824    -0.24200
H2115       H  0.90992881  0.79607197  0.43298498     0.05000
H2116       H  0.89586866  0.80941940  0.47282948     0.08200
H2117       H  0.88289899  0.76985887  0.46785036     0.08200
H2118       H  0.02097603  0.83443358  0.56205647     0.08200
H2119       H  0.00399120  0.79562622  0.57826565     0.08200
H2120       H  0.99645679  0.82087880  0.60545346     0.05000
C2121       C  0.14704914  0.82185903  0.36659879    -0.20800
C2122       C  0.14028196  0.84333347  0.35208678    -0.07400
C2123       C  0.15590873  0.86043799  0.31691545     0.13500
C2124       C  0.17762297  0.85573150  0.29819066    -0.20900
C2125       C  0.18480969  0.83465880  0.31334001    -0.07400
C2126       C  0.16884272  0.81730504  0.34816231     0.13500
C2127       C  0.17413660  0.79365079  0.36660129    -0.24200
H2128       H  0.13523950  0.80837922  0.39309216     0.14800
H2129       H  0.18940384  0.86907569  0.27158306     0.14800
C2130       C  0.15049228  0.88409253  0.29883333    -0.24200
H2131       H  0.15897084  0.78189174  0.39278091     0.05000
H2132       H  0.19714960  0.80399732  0.37866088     0.08200
H2133       H  0.17024027  0.77658662  0.34308133     0.08200
H2134       H  0.15525110  0.90151778  0.32217429     0.08200
H2135       H  0.12715796  0.87387238  0.28815008     0.08200
H2136       H  0.16500358  0.89534479  0.27188829     0.05000
C2137       C  0.96241374  0.68378909  0.45217633    -0.20800
C2138       C  0.97784088  0.70369444  0.41954552    -0.07400
C2139       C  0.97647515  0.69160724  0.38016715     0.13500
C2140       C  0.96157413  0.66046304  0.37526750    -0.20900
C2141       C  0.94819102  0.64043735  0.40856264    -0.07400
C2142       C  0.94785610  0.65255826  0.44745537     0.13500
C2143       C  0.93297381  0.63317417  0.48456158    -0.24200
H2144       H  0.96271847  0.69276286  0.48234297     0.14800
H2145       H  0.96149508  0.65183477  0.34496010     0.14800
C2146       C  0.99184075  0.71108286  0.34333407    -0.24200
H2147       H  0.93439331  0.64658694  0.51193231     0.05000
H2148       H  0.94393082  0.62024034  0.49272871     0.08200
H2149       H  0.90906336  0.61776877  0.47806875     0.08200
H2150       H  0.01608010  0.72477128  0.34917788     0.08200
H2151       H  0.98256390  0.72580382  0.33688095     0.08200
H2152       H  0.98877479  0.69773582  0.31520790     0.05000
C2153       C  0.13396751  0.69939904  0.91154296    -0.20800
C2154       C  0.13149126  0.68199355  0.87699023    -0.07400
C2155       C  0.12334122  0.65187575  0.88312317     0.13500
C2156       C  0.11774246  0.64004897  0.92327378    -0.20900
C2157       C  0.12013111  0.65737475  0.95811646    -0.07400
C2158       C  0.12850165  0.68771615  0.95178009     0.13500
C2159       C  0.13220710  0.70834380  0.98677920    -0.24200
H2160       H  0.14038013  0.72258387  0.90701358     0.14800
H2161       H  0.11157840  0.61689949  0.92725835     0.14800
C2162       C  0.12161660  0.63233059  0.84778655    -0.24200
H2163       H  0.13922736  0.73126391  0.97583523     0.05000
H2164       H  0.14956004  0.71005105  0.00825818     0.08200
H2165       H  0.11083684  0.69996562  0.00330131     0.08200
H2166       H  0.14323489  0.64269827  0.83136523     0.08200
H2167       H  0.10382322  0.62930601  0.82617971     0.08200
H2168       H  0.11643764  0.60983927  0.85838131     0.05000
C2169       C  0.28030181  0.82039179  0.73088201    -0.20800
C2170       C  0.25487716  0.80535107  0.70615960    -0.07400
C2171       C  0.25754751  0.81177347  0.66333178     0.13500
C2172       C  0.28438400  0.83495000  0.64749864    -0.20900
C2173       C  0.30878525  0.85243199  0.67302814    -0.07400
C2174       C  0.30719281  0.84384621  0.71504280     0.13500
C2175       C  0.33346660  0.85910980  0.74368558    -0.24200
H2176       H  0.27870228  0.81490777  0.76332400     0.14800
H2177       H  0.28558862  0.84054971  0.61514359     0.14800
C2178       C  0.23223120  0.79455534  0.63372118    -0.24200
H2179       H  0.32895624  0.84739583  0.77376813     0.05000
H2180       H  0.33871937  0.88223959  0.75013089     0.08200
H2181       H  0.35302810  0.85932022  0.72982009     0.08200
H2182       H  0.21435236  0.79982936  0.63884179     0.08200
H2183       H  0.22335998  0.77024086  0.63762062     0.08200
H2184       H  0.23944987  0.80034103  0.60121267     0.05000
C2185       C  0.01705312  0.64994632  0.78216262    -0.20800
C2186       C  0.02662049  0.65353041  0.74122754    -0.07400
C2187       C  0.00458577  0.63990249  0.70987484     0.13500
C2188       C  0.97421401  0.62523504  0.72034846    -0.20900
C2189       C  0.96463033  0.62380909  0.76106617    -0.07400
C2190       C  0.98674074  0.63559445  0.79265716     0.13500
C2191       C  0.97933257  0.63418949  0.83781186    -0.24200
H2192       H  0.03352980  0.65977568  0.80632918     0.14800
H2193       H  0.95779727  0.61574293  0.69605644     0.14800
C2194       C  0.01235744  0.64064943  0.66498305    -0.24200
H2195       H  0.99945537  0.64358159  0.85753543     0.05000
H2196       H  0.96472823  0.61062216  0.84744153     0.08200
H2197       H  0.96846130  0.64748616  0.84391283     0.08200
H2198       H  0.02797739  0.63218590  0.66113578     0.08200
H2199       H  0.02229889  0.66369079  0.65268461     0.08200
H2200       H  0.99244426  0.62645676  0.64592364     0.05000
C2201       C  0.14344304  0.78692391  0.57185920    -0.20800
C2202       C  0.13944983  0.79102940  0.61340418    -0.07400
C2203       C  0.12640150  0.80820897  0.62443508     0.13500
C2204       C  0.11434699  0.81771881  0.59349832    -0.20900
C2205       C  0.11609942  0.81130413  0.55217640    -0.07400
C2206       C  0.13227435  0.79729210  0.54088887     0.13500
C2207       C  0.13591350  0.79124248  0.49653622    -0.24200
H2208       H  0.15389298  0.77410590  0.56373294     0.14800
H2209       H  0.10233894  0.82900592  0.60163590     0.14800
C2210       C  0.12334787  0.81487277  0.66867637    -0.24200
H2211       H  0.14845090  0.77925537  0.49361142     0.05000
H2212       H  0.14839504  0.81265474  0.47951185     0.08200
H2213       H  0.11380902  0.77730346  0.48205457     0.08200
H2214       H  0.14572370  0.82807256  0.68266993     0.08200
H2215       H  0.11014350  0.79377545  0.68615063     0.08200
H2216       H  0.11205592  0.82810280  0.67145170     0.05000
C2217       C  0.16133032  0.83250768  0.79120752    -0.20800
C2218       C  0.16911787  0.81440900  0.81412462    -0.07400
C2219       C  0.17401186  0.81964440  0.85704010     0.13500
C2220       C  0.17048765  0.84219510  0.87542346    -0.20900
C2221       C  0.16227732  0.86000241  0.85258260    -0.07400
C2222       C  0.15812242  0.85525772  0.80954261     0.13500
C2223       C  0.15131208  0.87456753  0.78216006    -0.24200
H2224       H  0.15803047  0.82908568  0.75833534     0.14800
H2225       H  0.17385361  0.84568493  0.90826469     0.14800
C2226       C  0.18220451  0.80127660  0.88424512    -0.24200
H2227       H  0.15081523  0.86887008  0.74914675     0.05000
H2228       H  0.16868058  0.89835373  0.78599444     0.08200
H2229       H  0.12918696  0.87142515  0.78981842     0.08200
H2230       H  0.20428473  0.80480030  0.87531447     0.08200
H2231       H  0.16513515  0.77729201  0.88164127     0.08200
H2232       H  0.18362632  0.80758602  0.91714051     0.05000
C2233       C  0.28088416  0.46567194  0.22798898    -0.20800
C2234       C  0.25607056  0.45862398  0.20345121    -0.07400
C2235       C  0.25888567  0.45772282  0.16006529     0.13500
C2236       C  0.28496634  0.46042927  0.14308398    -0.20900
C2237       C  0.30864436  0.46424640  0.16800482    -0.07400
C2238       C  0.30711816  0.46864430  0.21101810     0.13500
C2239       C  0.33288666  0.47658059  0.23962584    -0.24200
H2240       H  0.27926925  0.46743395  0.26098353     0.14800
H2241       H  0.28621760  0.45814173  0.11013891     0.14800
C2242       C  0.23466741  0.45424916  0.13115588    -0.24200
H2243       H  0.32883768  0.48252374  0.27077802     0.05000
H2244       H  0.35331493  0.49615690  0.22734309     0.08200
H2245       H  0.33644276  0.45736480  0.24347380     0.08200
H2246       H  0.22848922  0.47136259  0.13811035     0.08200
H2247       H  0.21489618  0.43163164  0.13398244     0.08200
H2248       H  0.24194053  0.45718951  0.09853345     0.05000
C2249       C  0.12441787  0.51802375  0.10912014    -0.20800
C2250       C  0.11551139  0.53395232  0.13437449    -0.07400
C2251       C  0.11271142  0.52802874  0.17734962     0.13500
C2252       C  0.11677975  0.50503812  0.19307686    -0.20900
C2253       C  0.12314202  0.48729901  0.16726155    -0.07400
C2254       C  0.12804757  0.49472727  0.12469837     0.13500
C2255       C  0.13695222  0.47831804  0.09500550    -0.24200
H2256       H  0.12712214  0.52281912  0.07642869     0.14800
H2257       H  0.11344013  0.49994446  0.22566006     0.14800
C2258       C  0.10557730  0.54579274  0.20716417    -0.24200
H2259       H  0.14262901  0.48914582  0.06423121     0.05000
H2260       H  0.11836222  0.45518386  0.09044520     0.08200
H2261       H  0.15681366  0.47804383  0.10679185     0.08200
H2262       H  0.08260700  0.54124487  0.20225377     0.08200
H2263       H  0.12161306  0.56998531  0.20317399     0.08200
H2264       H  0.10699610  0.53986691  0.23962049     0.05000
C2265       C  0.15590527  0.31141740  0.31598036    -0.20800
C2266       C  0.15624919  0.31159594  0.35923286    -0.07400
C2267       C  0.16180385  0.33803536  0.37979538     0.13500
C2268       C  0.16717361  0.36327800  0.35662043    -0.20900
C2269       C  0.16670895  0.36299742  0.31335455    -0.07400
C2270       C  0.16100895  0.33651328  0.29284473     0.13500
C2271       C  0.16100681  0.33447400  0.24655544    -0.24200
H2272       H  0.15191140  0.29145710  0.29992244     0.14800
H2273       H  0.17127680  0.38331637  0.37255567     0.14800
C2274       C  0.16122207  0.33978241  0.42605152    -0.24200
H2275       H  0.15836290  0.31290155  0.23612049     0.05000
H2276       H  0.18234128  0.35262045  0.23400743     0.08200
H2277       H  0.14218583  0.33608100  0.23353453     0.08200
H2278       H  0.17970056  0.33779615  0.43953773     0.08200
H2279       H  0.13963111  0.32169122  0.43802232     0.08200
H2280       H  0.16394976  0.36138446  0.43652241     0.05000
C2281       C  0.13709212  0.21918366  0.00691059    -0.20800
C2282       C  0.13158150  0.21437442  0.96442235    -0.07400
C2283       C  0.14814926  0.20453131  0.94154382     0.13500
C2284       C  0.17104318  0.20212034  0.96104936    -0.20900
C2285       C  0.17777601  0.20874464  0.00308971    -0.07400
C2286       C  0.15959100  0.21630964  0.02657617     0.13500
C2287       C  0.16426532  0.22268168  0.07206424    -0.24200
H2288       H  0.12406129  0.22601458  0.02491461     0.14800
H2289       H  0.18436360  0.19573663  0.94290354     0.14800
C2290       C  0.14282570  0.19766375  0.89627637    -0.24200
H2291       H  0.14826849  0.22867583  0.08504363     0.05000
H2292       H  0.18696912  0.24169607  0.07782787     0.08200
H2293       H  0.16100096  0.20254444  0.08875520     0.08200
H2294       H  0.14610840  0.21766066  0.87916780     0.08200
H2295       H  0.11988497  0.17885107  0.89135330     0.08200
H2296       H  0.15829389  0.19099306  0.88322502     0.05000
C2297       C  0.94319719  0.15542896  0.05877559    -0.20800
C2298       C  0.91682404  0.14140247  0.03587534    -0.07400
C2299       C  0.91792673  0.14864112  0.99339484     0.13500
C2300       C  0.94462028  0.17129084  0.97629003    -0.20900
C2301       C  0.97027408  0.18729970  0.00027636    -0.07400
C2302       C  0.96980191  0.17835756  0.04175579     0.13500
C2303       C  0.99715167  0.19275360  0.06854231    -0.24200
H2304       H  0.94268370  0.14950565  0.09088229     0.14800
H2305       H  0.94495013  0.17763015  0.94440211     0.14800
C2306       C  0.89122845  0.13274998  0.96551864    -0.24200
H2307       H  0.99339296  0.18084930  0.09834514     0.05000
H2308       H  0.00344160  0.21608484  0.07575224     0.08200
H2309       H  0.01578973  0.19233348  0.05269512     0.08200
H2310       H  0.87410706  0.13849986  0.97387216     0.08200
H2311       H  0.88183802  0.10825306  0.96774618     0.08200
H2312       H  0.89710253  0.13928011  0.93279978     0.05000
C2313       C  0.12940191  0.34244484  0.04282478    -0.20800
C2314       C  0.11199685  0.31291217  0.05653914    -0.07400
C2315       C  0.10946334  0.30632419  0.09894137     0.13500
C2316       C  0.12250272  0.32991483  0.12692563    -0.20900
C2317       C  0.13694249  0.35959355  0.11313434    -0.07400
C2318       C  0.14164401  0.36604829  0.07078219     0.13500
C2319       C  0.15912308  0.39767814  0.05506751    -0.24200
H2320       H  0.13159049  0.34720552  0.01009967     0.14800
H2321       H  0.11939447  0.32522461  0.15963735     0.14800
C2322       C  0.09273162  0.27465073  0.11466292    -0.24200
H2323       H  0.16168895  0.39844075  0.02110371     0.05000
H2324       H  0.18164510  0.40895626  0.06894915     0.08200
H2325       H  0.14772818  0.41018230  0.06295373     0.08200
H2326       H  0.10204933  0.26160061  0.10075871     0.08200
H2327       H  0.06883139  0.26411101  0.10678066     0.08200
H2328       H  0.09442426  0.27366400  0.14862933     0.05000
C2329       C  0.15030613  0.33737635  0.87434941    -0.20800
C2330       C  0.14070517  0.30912655  0.85699150    -0.07400
C2331       C  0.15448049  0.30781703  0.81993070     0.13500
C2332       C  0.17608649  0.33443075  0.80103788    -0.20900
C2333       C  0.18505560  0.36275159  0.81774433    -0.07400
C2334       C  0.17218518  0.36396926  0.85571881     0.13500
C2335       C  0.18103125  0.39292090  0.87742755    -0.24200
H2336       H  0.14047275  0.33884896  0.90293416     0.14800
H2337       H  0.18600573  0.33292464  0.77255626     0.14800
C2338       C  0.14709423  0.27872710  0.79969448    -0.24200
H2339       H  0.16903495  0.38933648  0.90700984     0.05000
H2340       H  0.17579291  0.40723811  0.85788003     0.08200
H2341       H  0.20507565  0.40462488  0.88461521     0.08200
H2342       H  0.12351096  0.26664467  0.78980901     0.08200
H2343       H  0.15143093  0.26478829  0.82139752     0.08200
H2344       H  0.16080047  0.28220203  0.77184380     0.05000
C2345       C  0.13185918  0.45696583  0.45331945    -0.20800
C2346       C  0.11403234  0.47006395  0.45380856    -0.07400
C2347       C  0.10390390  0.47529362  0.41580014     0.13500
C2348       C  0.11367331  0.46928526  0.37877271    -0.20900
C2349       C  0.13310072  0.45793924  0.37814499    -0.07400
C2350       C  0.14150513  0.45076060  0.41630928     0.13500
C2351       C  0.16034265  0.43628926  0.41905741    -0.24200
H2352       H  0.13906314  0.45228728  0.48226975     0.14800
H2353       H  0.10633348  0.47399442  0.34997501     0.14800
C2354       C  0.08225964  0.48653046  0.41349316    -0.24200
H2355       H  0.16301697  0.43086895  0.45129450     0.05000
H2356       H  0.18294236  0.45162394  0.40692644     0.08200
H2357       H  0.14969948  0.41505123  0.40156163     0.08200
H2358       H  0.09281328  0.50985081  0.42465600     0.08200
H2359       H  0.06222251  0.47191927  0.43211359     0.08200
H2360       H  0.07480308  0.48650653  0.38145629     0.05000
C2361       C  0.12472116  0.60130882  0.66404092    -0.20800
C2362       C  0.11845045  0.59664386  0.62173411    -0.07400
C2363       C  0.11570746  0.61835844  0.59892976     0.13500
C2364       C  0.11870469  0.64358518  0.61919196    -0.20900
C2365       C  0.12288804  0.64743269  0.66219551    -0.07400
C2366       C  0.12680459  0.62613765  0.68466221     0.13500
C2367       C  0.13227247  0.62854751  0.73041146    -0.24200
H2368       H  0.12667073  0.58454378  0.68152380     0.14800
H2369       H  0.11590295  0.65955572  0.60105428     0.14800
C2370       C  0.10729737  0.61494975  0.55398009    -0.24200
H2371       H  0.13567984  0.61039439  0.74227645     0.05000
H2372       H  0.11281556  0.62682145  0.74682038     0.08200
H2373       H  0.15253692  0.65009184  0.73772504     0.08200
H2374       H  0.08654189  0.61577394  0.55023124     0.08200
H2375       H  0.10317357  0.59376479  0.54024687     0.08200
H2376       H  0.12526882  0.63359717  0.53619393     0.05000
C2377       C  0.15022897  0.46879990  0.70467053    -0.20800
C2378       C  0.14270287  0.45975736  0.66345131    -0.07400
C2379       C  0.15963789  0.44982464  0.64178114     0.13500
C2380       C  0.18224320  0.44771984  0.66246063    -0.20900
C2381       C  0.18852554  0.45494138  0.70445714    -0.07400
C2382       C  0.17280690  0.46660210  0.72540437     0.13500
C2383       C  0.17855331  0.47550462  0.77001634    -0.24200
H2384       H  0.13763208  0.47681197  0.72131909     0.14800
H2385       H  0.19456608  0.43939035  0.64580961     0.14800
C2386       C  0.15310775  0.43975781  0.59760442    -0.24200
H2387       H  0.16354932  0.48324641  0.78161222     0.05000
H2388       H  0.20171195  0.49412723  0.77391924     0.08200
H2389       H  0.17487386  0.45614132  0.78908678     0.08200
H2390       H  0.15654863  0.45863778  0.57765212     0.08200
H2391       H  0.12984804  0.42110486  0.59468683     0.08200
H2392       H  0.16791986  0.43173676  0.58614046     0.05000
C2393       C  0.01403090  0.49633712  0.48439431    -0.20800
C2394       C  0.02118238  0.50883069  0.52389046    -0.07400
C2395       C  0.00248973  0.51767137  0.54302702     0.13500
C2396       C  0.97698087  0.51355728  0.52223500    -0.20900
C2397       C  0.96991656  0.50117363  0.48261964    -0.07400
C2398       C  0.98842967  0.49199038  0.46378596     0.13500
C2399       C  0.98043329  0.47615918  0.42294313    -0.24200
H2400       H  0.02822192  0.48928546  0.47000213     0.14800
H2401       H  0.96274088  0.52051705  0.53664585     0.14800
C2402       C  0.01006428  0.53262989  0.58449341    -0.24200
H2403       H  0.99668530  0.46941952  0.41353384     0.05000
H2404       H  0.97999775  0.49092144  0.39864310     0.08200
H2405       H  0.95820323  0.45571098  0.42505094     0.08200
H2406       H  0.03225757  0.55318069  0.58319257     0.08200
H2407       H  0.01037212  0.51738048  0.60813385     0.08200
H2408       H  0.99361270  0.53900688  0.59427475     0.05000
C2409       C  0.88659440  0.48532568  0.83133787    -0.20800
C2410       C  0.87665339  0.47637423  0.87208146    -0.07400
C2411       C  0.86050151  0.48831960  0.89120955     0.13500
C2412       C  0.85685734  0.51018961  0.87045009    -0.20900
C2413       C  0.86866475  0.52055162  0.83088478    -0.07400
C2414       C  0.88300569  0.50714725  0.81066724     0.13500
C2415       C  0.89625708  0.51681709  0.76826449    -0.24200
H2416       H  0.89823638  0.47582952  0.81568490     0.14800
H2417       H  0.84557706  0.52013367  0.88595895     0.14800
C2418       C  0.84796495  0.47919632  0.93395065    -0.24200
H2419       H  0.90732428  0.50447520  0.75778151     0.05000
H2420       H  0.91321593  0.54094678  0.76831585     0.08200
H2421       H  0.87852544  0.51247665  0.74570675     0.08200
H2422       H  0.86611492  0.48429261  0.95613557     0.08200
H2423       H  0.83140762  0.45496603  0.93463016     0.08200
H2424       H  0.83653616  0.49124162  0.94418260     0.05000
C2425       C  0.80003323  0.26579306  0.83833755    -0.20800
C2426       C  0.79712741  0.26435248  0.79525605    -0.07400
C2427       C  0.81639488  0.28986739  0.77181806     0.13500
C2428       C  0.83913298  0.31514489  0.79182491    -0.20900
C2429       C  0.84365490  0.31575785  0.83477264    -0.07400
C2430       C  0.82281792  0.29093679  0.85841828     0.13500
C2431       C  0.82481854  0.28986985  0.90460208    -0.24200
H2432       H  0.78492354  0.24646375  0.85647817     0.14800
H2433       H  0.85436404  0.33413985  0.77328516     0.14800
C2434       C  0.81441208  0.29006637  0.72556776    -0.24200
H2435       H  0.80648571  0.26882163  0.91770571     0.05000
H2436       H  0.82331355  0.30859525  0.91843571     0.08200
H2437       H  0.84601531  0.29122825  0.91360080     0.08200
H2438       H  0.79255022  0.28697148  0.71623494     0.08200
H2439       H  0.81719284  0.27188246  0.71249911     0.08200
H2440       H  0.83189586  0.31148180  0.71212127     0.05000
C2441       C  0.96134249  0.31499918  0.87464327    -0.20800
C2442       C  0.94712990  0.32041416  0.90787581    -0.07400
C2443       C  0.94713005  0.30784903  0.94662621     0.13500
C2444       C  0.96256902  0.29219578  0.95131956    -0.20900
C2445       C  0.97866884  0.28893200  0.91880850    -0.07400
C2446       C  0.97718504  0.29983870  0.87955971     0.13500
C2447       C  0.99343142  0.29710674  0.84300945    -0.24200
H2448       H  0.96125997  0.32378130  0.84441965     0.14800
H2449       H  0.96293230  0.28328928  0.98137275     0.14800
C2450       C  0.93150571  0.31105435  0.98353551    -0.24200
H2451       H  0.99046140  0.30765236  0.81501065     0.05000
H2452       H  0.98482502  0.27320742  0.83596787     0.08200
H2453       H  0.01759864  0.30833853  0.84961152     0.08200
H2454       H  0.90762486  0.30178475  0.97642236     0.08200
H2455       H  0.94181089  0.33489968  0.99225155     0.08200
H2456       H  0.93297271  0.29884318  0.01072146     0.05000
C2457       C  0.96767134  0.45055736  0.73891680    -0.20800
C2458       C  0.97502322  0.45667899  0.78055864    -0.07400
C2459       C  0.00505790  0.47527210  0.79238315     0.13500
C2460       C  0.02716540  0.48553770  0.76220747    -0.20900
C2461       C  0.01975276  0.47794155  0.72097898    -0.07400
C2462       C  0.98973403  0.46096083  0.70884038     0.13500
C2463       C  0.98096790  0.45187548  0.66468495    -0.24200
H2464       H  0.94463585  0.43629307  0.73012556     0.14800
H2465       H  0.05037274  0.49847870  0.77091763     0.14800
C2466       C  0.01422216  0.48256797  0.83676045    -0.24200
H2467       H  0.95653741  0.43757997  0.66112214     0.05000
H2468       H  0.99139095  0.43911899  0.65339288     0.08200
H2469       H  0.98826342  0.47196494  0.64526648     0.08200
H2470       H  0.00695836  0.46163928  0.85432753     0.08200
H2471       H  0.00412383  0.49504606  0.85014928     0.08200
H2472       H  0.03869391  0.49665466  0.84012756     0.05000
C2473       C  0.97001310  0.50461948  0.00352065    -0.20800
C2474       C  0.97188062  0.48236597  0.98150730    -0.07400
C2475       C  0.99910035  0.48237938  0.98203832     0.13500
C2476       C  0.02364488  0.50494364  0.00348057    -0.20900
C2477       C  0.02182637  0.52734887  0.02524302    -0.07400
C2478       C  0.99445297  0.52703955  0.02518134     0.13500
C2479       C  0.99091175  0.55079223  0.04656559    -0.24200
H2480       H  0.94928713  0.50474960  0.00328396     0.14800
H2481       H  0.04436255  0.50479763  0.00378762     0.14800
C2482       C  0.00224243  0.45808070  0.96159247    -0.24200
H2483       H  0.96861324  0.54802602  0.04121577     0.05000
H2484       H  0.00776055  0.57318298  0.03496999     0.08200
H2485       H  0.99350358  0.54953814  0.08018043     0.08200
H2486       H  0.99979569  0.45891575  0.92785550     0.08200
H2487       H  0.98508735  0.43595275  0.97359575     0.08200
H2488       H  0.02435449  0.46052795  0.96749002     0.05000
C2489       C  0.00921517  0.21185072  0.71448375    -0.20800
C2490       C  0.97841544  0.19986283  0.71362370    -0.07400
C2491       C  0.96295832  0.19537224  0.75137607     0.13500
C2492       C  0.97870112  0.20240068  0.78854700    -0.20900
C2493       C  0.00941843  0.21344718  0.78967256    -0.07400
C2494       C  0.02494951  0.21845500  0.75170543     0.13500
C2495       C  0.05804992  0.23076881  0.74930186    -0.24200
H2496       H  0.02102162  0.21530597  0.68570823     0.14800
H2497       H  0.96664690  0.19867580  0.81713547     0.14800
C2498       C  0.92991247  0.18354349  0.75333015    -0.24200
H2499       H  0.06608319  0.23399931  0.71702513     0.05000
H2500       H  0.06384770  0.21501195  0.76392815     0.08200
H2501       H  0.07002428  0.25285894  0.76459900     0.08200
H2502       H  0.91755163  0.15993731  0.74319075     0.08200
H2503       H  0.92403353  0.19735333  0.73369111     0.08200
H2504       H  0.92236647  0.18404198  0.78509840     0.05000
C2505       C  0.85416918  0.07482697  0.50224136    -0.20800
C2506       C  0.85588348  0.07503838  0.54539602    -0.07400
C2507       C  0.83640347  0.04899032  0.56747802     0.13500
C2508       C  0.81414088  0.02435308  0.54600269    -0.20900
C2509       C  0.81069478  0.02502263  0.50293967    -0.07400
C2510       C  0.83198165  0.05036558  0.48065830     0.13500
C2511       C  0.83102424  0.05280919  0.43448351    -0.24200
H2512       H  0.86967177  0.09466802  0.48527467     0.14800
H2513       H  0.79852862  0.00484065  0.56338977     0.14800
C2514       C  0.83789157  0.04753970  0.61365740    -0.24200
H2515       H  0.84956608  0.07428836  0.42276214     0.05000
H2516       H  0.80997629  0.05159634  0.42500007     0.08200
H2517       H  0.83301009  0.03462319  0.41974531     0.08200
H2518       H  0.83484084  0.06526197  0.62780808     0.08200
H2519       H  0.85975246  0.05058908  0.62292188     0.08200
H2520       H  0.82038794  0.02568950  0.62597536     0.05000
C2521       C  0.01575387  0.20362791  0.45949108    -0.20800
C2522       C  0.01443651  0.20579514  0.50266372    -0.07400
C2523       C  0.03863198  0.20864407  0.52638476     0.13500
C2524       C  0.06398166  0.21189476  0.50619104    -0.20900
C2525       C  0.06605587  0.21218593  0.46299504    -0.07400
C2526       C  0.04112539  0.20694972  0.43944133     0.13500
C2527       C  0.04163826  0.20667075  0.39309188    -0.24200
H2528       H  0.99722148  0.20062166  0.44081447     0.14800
H2529       H  0.08289221  0.21530893  0.52437801     0.14800
C2530       C  0.03870275  0.20928939  0.57277445    -0.24200
H2531       H  0.04463614  0.18809537  0.38227213     0.05000
H2532       H  0.06005959  0.22823477  0.38141959     0.08200
H2533       H  0.02061301  0.20340929  0.37963666     0.08200
H2534       H  0.01955015  0.18840234  0.58484330     0.08200
H2535       H  0.03755305  0.22890910  0.58377022     0.08200
H2536       H  0.05921395  0.21099587  0.58580796     0.05000
C2537       C  0.84392854  0.18831297  0.63778395    -0.20800
C2538       C  0.84973864  0.16615239  0.65227959    -0.07400
C2539       C  0.83460605  0.15002006  0.68829840     0.13500
C2540       C  0.81377080  0.15576154  0.70731043    -0.20900
C2541       C  0.80729474  0.17726560  0.69211111    -0.07400
C2542       C  0.82323999  0.19421513  0.65701220     0.13500
C2543       C  0.81916850  0.21886997  0.63938138    -0.24200
H2544       H  0.85570643  0.20129686  0.61092423     0.14800
H2545       H  0.80210464  0.14286433  0.73427454     0.14800
C2546       C  0.83964774  0.12633643  0.70718896    -0.24200
H2547       H  0.83454724  0.23048840  0.61334963     0.05000
H2548       H  0.82374507  0.23582545  0.66339098     0.08200
H2549       H  0.79624519  0.20956872  0.62738882     0.08200
H2550       H  0.86306196  0.13638317  0.71745013     0.08200
H2551       H  0.83425027  0.10833847  0.68454081     0.08200
H2552       H  0.82543100  0.11584027  0.73463244     0.05000
C2553       C  0.03054080  0.34657150  0.62017808    -0.20800
C2554       C  0.03637581  0.36636770  0.58697760    -0.07400
C2555       C  0.02749728  0.35426010  0.54709556     0.13500
C2556       C  0.01258072  0.32311363  0.54197580    -0.20900
C2557       C  0.00553952  0.30316913  0.57548772    -0.07400
C2558       C  0.01517021  0.31542548  0.61524800     0.13500
C2559       C  0.00904062  0.29627899  0.65311254    -0.24200
H2560       H  0.03752802  0.35552354  0.65084446     0.14800
H2561       H  0.00563455  0.31436369  0.51122636     0.14800
C2562       C  0.03246524  0.37363311  0.50981724    -0.24200
H2563       H  0.01864678  0.30988496  0.68126873     0.05000
H2564       H  0.01906020  0.28193135  0.64964112     0.08200
H2565       H  0.98472705  0.28230482  0.65814033     0.08200
H2566       H  0.05662321  0.38869462  0.50470907     0.08200
H2567       H  0.02143366  0.38697717  0.51421623     0.08200
H2568       H  0.02317503  0.36020744  0.48143693     0.05000
C2569       C  0.85078445  0.30948817  0.09202768    -0.20800
C2570       C  0.86151697  0.32741188  0.12759566    -0.07400
C2571       C  0.87941787  0.35870751  0.12229810     0.13500
C2572       C  0.88581124  0.37082609  0.08221770    -0.20900
C2573       C  0.87485766  0.35283468  0.04675853    -0.07400
C2574       C  0.85714651  0.32157753  0.05207005     0.13500
C2575       C  0.84401755  0.30062145  0.01610109    -0.24200
H2576       H  0.83711255  0.28550255  0.09529682     0.14800
H2577       H  0.89949591  0.39479449  0.07863907     0.14800
C2578       C  0.89122099  0.37975578  0.15833861    -0.24200
H2579       H  0.82974255  0.27708852  0.02614479     0.05000
H2580       H  0.86198925  0.30156893  0.99680007     0.08200
H2581       H  0.83007131  0.30681967  0.99748170     0.08200
H2582       H  0.90633156  0.37523001  0.17699958     0.08200
H2583       H  0.87248068  0.37705772  0.17765337     0.08200
H2584       H  0.90403804  0.40344694  0.14832374     0.05000
C2585       C  0.73562725  0.19773107  0.33975317    -0.20800
C2586       C  0.73758131  0.20106669  0.29670609    -0.07400
C2587       C  0.71246582  0.18201296  0.27272903     0.13500
C2588       C  0.68689582  0.15926099  0.29215920    -0.20900
C2589       C  0.68552898  0.15455391  0.33509657    -0.07400
C2590       C  0.71011958  0.17494031  0.35930211     0.13500
C2591       C  0.71053457  0.17236656  0.40550559    -0.24200
H2592       H  0.75472767  0.21258237  0.35826983     0.14800
H2593       H  0.66816938  0.14424105  0.27321684     0.14800
C2594       C  0.71297785  0.18426813  0.22647681    -0.24200
H2595       H  0.73161728  0.19020114  0.41903585     0.05000
H2596       H  0.70828312  0.15061911  0.41425972     0.08200
H2597       H  0.69216563  0.17445550  0.41917984     0.08200
H2598       H  0.73128767  0.18156131  0.21399069     0.08200
H2599       H  0.71618114  0.20627392  0.21705370     0.08200
H2600       H  0.69188374  0.16676976  0.21254117     0.05000
C2601       C  0.86991693  0.36211064  0.38508827    -0.20800
C2602       C  0.87167760  0.36086513  0.34178944    -0.07400
C2603       C  0.87373263  0.38497180  0.31827603     0.13500
C2604       C  0.87522860  0.40956523  0.33850585    -0.20900
C2605       C  0.87522280  0.41148517  0.38161559    -0.07400
C2606       C  0.87176224  0.38704245  0.40521212     0.13500
C2607       C  0.87160466  0.38773771  0.45153075    -0.24200
H2608       H  0.86807005  0.34385624  0.40360916     0.14800
H2609       H  0.87763689  0.42821855  0.32032817     0.14800
C2610       C  0.87579191  0.38607178  0.27193977    -0.24200
H2611       H  0.86971436  0.36719465  0.46515561     0.05000
H2612       H  0.85237830  0.38950391  0.46240424     0.08200
H2613       H  0.89254172  0.40712281  0.46287603     0.08200
H2614       H  0.85545727  0.36708605  0.25856409     0.08200
H2615       H  0.89577058  0.38533739  0.26193983     0.08200
H2616       H  0.87776063  0.40687621  0.25917405     0.05000
C2617       C  0.84484828  0.21423343  0.42912559    -0.20800
C2618       C  0.85336116  0.21504571  0.38819724    -0.07400
C2619       C  0.86845935  0.20006337  0.37626645     0.13500
C2620       C  0.87785272  0.18760132  0.40670325    -0.20900
C2621       C  0.87189749  0.18936870  0.44827348    -0.07400
C2622       C  0.85347679  0.20098687  0.45948294     0.13500
C2623       C  0.84464007  0.20153126  0.50350379    -0.24200
H2624       H  0.83265869  0.22526945  0.43757141     0.14800
H2625       H  0.89146363  0.17808710  0.39832292     0.14800
C2626       C  0.87664113  0.19913017  0.33201059    -0.24200
H2627       H  0.83045024  0.21175994  0.50629892     0.05000
H2628       H  0.86470299  0.21473092  0.52273489     0.08200
H2629       H  0.83175717  0.17838208  0.51559775     0.08200
H2630       H  0.89068461  0.22216007  0.31997671     0.08200
H2631       H  0.85617985  0.18722959  0.31313548     0.08200
H2632       H  0.88921399  0.18721208  0.32856617     0.05000
C2633       C  0.98649893  0.36504323  0.29383974    -0.20800
C2634       C  0.96632976  0.35455411  0.26043156    -0.07400
C2635       C  0.97820982  0.36192638  0.22015375     0.13500
C2636       C  0.00922187  0.37764738  0.21465315    -0.20900
C2637       C  0.02933756  0.38583125  0.24790600    -0.07400
C2638       C  0.01755470  0.38018507  0.28827999     0.13500
C2639       C  0.03716967  0.38885306  0.32584445    -0.24200
H2640       H  0.97795163  0.36040647  0.32498246     0.14800
H2641       H  0.01776215  0.38256809  0.18351469     0.14800
C2642       C  0.95874311  0.35247665  0.18242876    -0.24200
H2643       H  0.02406311  0.38251807  0.35478515     0.05000
H2644       H  0.05234966  0.41339919  0.32637578     0.08200
H2645       H  0.05025157  0.37734374  0.32568650     0.08200
H2646       H  0.94419786  0.36233429  0.18304486     0.08200
H2647       H  0.94507944  0.32777096  0.18118084     0.08200
H2648       H  0.97194363  0.36008055  0.15359978     0.05000
C2649       C  0.81146363  0.15686561  0.13500147    -0.20800
C2650       C  0.83202938  0.14902458  0.14985566    -0.07400
C2651       C  0.84854598  0.16371772  0.18573149     0.13500
C2652       C  0.84439263  0.18573834  0.20460578    -0.20900
C2653       C  0.82401273  0.19374377  0.18952273    -0.07400
C2654       C  0.80704566  0.17861299  0.15417625     0.13500
C2655       C  0.78372957  0.18450615  0.13637803    -0.24200
H2656       H  0.79841978  0.14575618  0.10797314     0.14800
H2657       H  0.85743782  0.19689740  0.23161982     0.14800
C2658       C  0.87065104  0.15664401  0.20494672    -0.24200
H2659       H  0.77205947  0.16979149  0.10979951     0.05000
H2660       H  0.79418107  0.20787530  0.12517953     0.08200
H2661       H  0.76670616  0.18023862  0.16005532     0.08200
H2662       H  0.88875131  0.16153939  0.18281652     0.08200
H2663       H  0.85932058  0.13285041  0.21434086     0.08200
H2664       H  0.88109503  0.17014355  0.23295112     0.05000
loop_ 
_geom_bond_atom_site_label_1 
_geom_bond_atom_site_label_2 
_geom_bond_distance 
_geom_bond_site_symmetry_2 
_ccdc_geom_bond_type 
O1           Ni7   1.930       .  S
O1           C22   1.276       .  A
O2          Ni25   1.882       .  S
O2           C11   1.258       .  A
O3           Ni7   1.906       .  S
O3          Ni25   1.896       .  S
O3          Ni19   1.932       .  S
O3           H26   0.966       .  S
C4           O21   1.287       .  A
C4           O13   1.280       .  A
C4         C2634   1.507       .  S
O5          Ni24   1.929       .  S
O5           C11   1.271       .  A
O6          Ni24   1.910       .  S
O6            C8   1.270       .  A
Ni7          O10   1.940       .  S
Ni7          O12   1.920       .  S
C8           O18   1.276       .  A
C8         C2602   1.504       .  S
O9          Ni25   1.911       .  S
O9           C15   1.271       .  A
O10          C15   1.278       .  A
C11        C2618   1.459       .  S
O12          C14   1.269       .  A
O13         Ni24   1.924       .  S
C14          O20   1.272       .  A
C14        C2653   1.505       .  S
C15        C2586   1.493       .  S
H16          O17   0.966       .  S
O17         Ni25   1.902       .  S
O17         Ni19   1.891       .  S
O17         Ni24   1.898       .  S
O18         Ni19   1.941       .  S
Ni19         O23   1.926       .  S
Ni19         O21   1.943       .  S
O20         Ni25   1.925       .  S
C22          O23   1.278       .  A
C22        C2570   1.503       .  S
O27         Ni33   1.919       .  S
O27          C48   1.271       .  A
O28         Ni51   1.884       .  S
O28          C37   1.260       .  A
O29         Ni33   1.903       .  S
O29         Ni51   1.895       .  S
O29         Ni45   1.926       .  S
O29          H52   0.966       .  S
C30          O47   1.286       .  A
C30          O39   1.281       .  A
C30        C2557   1.503   1_655  S
O31         Ni50   1.924       .  S
O31          C37   1.270       .  A
O32         Ni50   1.901       .  S
O32          C34   1.268       .  A
Ni33         O36   1.935       .  S
Ni33         O38   1.919       .  S
C34          O44   1.275       .  A
C34        C2522   1.503   1_655  S
O35         Ni51   1.896       .  S
O35          C41   1.268       .  A
O36          C41   1.276       .  A
C37        C2621   1.464       .  S
O38          C40   1.269       .  A
O39         Ni50   1.924       .  S
C40          O46   1.273       .  A
C40        C2538   1.505       .  S
C41        C2506   1.481       .  S
H42          O43   0.966       .  S
O43         Ni51   1.891       .  S
O43         Ni45   1.884       .  S
O43         Ni50   1.886       .  S
O44         Ni45   1.945       .  S
Ni45         O49   1.916       .  S
Ni45         O47   1.932       .  S
O46         Ni51   1.929       .  S
C48          O49   1.276       .  A
C48        C2490   1.486       .  S
O53         Ni59   1.937   1_554  S
O53          C74   1.278       .  A
O54         Ni77   1.887       .  S
O54          C63   1.260       .  A
O55         Ni59   1.903       .  S
O55         Ni77   1.897       .  S
O55         Ni71   1.931       .  S
O55          H78   0.965       .  S
C56          O73   1.289       .  A
C56          O65   1.280       .  A
C56        C2442   1.509       .  S
O57         Ni76   1.920       .  S
O57          C63   1.269       .  A
O58         Ni76   1.902       .  S
O58          C60   1.268       .  A
Ni59         O62   1.947       .  S
Ni59         O64   1.926       .  S
C60          O70   1.277       .  A
C60        C2429   1.504       .  S
O61         Ni77   1.909       .  S
O61          C67   1.271       .  A
O62          C67   1.279       .  A
C63        C2458   1.465       .  S
O64          C66   1.272       .  A
O65         Ni76   1.920       .  S
C66          O72   1.270       .  A
C66        C2474   1.495       .  S
C67        C2410   1.504       .  S
H68          O69   0.969       .  S
O69         Ni77   1.897       .  S
O69         Ni71   1.885       .  S
O69         Ni76   1.889       .  S
O70         Ni71   1.948       .  S
Ni71         O75   1.922       .  S
Ni71         O73   1.946       .  S
O72         Ni77   1.926       .  S
C74          O75   1.278   1_554  A
C74        C2573   1.500       .  S
O79         Ni85   1.929       .  S
O79         C100   1.272       .  A
O80        Ni103   1.884       .  S
O80          C89   1.258       .  A
O81         Ni85   1.910       .  S
O81        Ni103   1.901       .  S
O81         Ni97   1.931       .  S
O81         H104   0.966       .  S
C82          O99   1.285       .  A
C82          O91   1.279       .  A
C82        C2554   1.498       .  S
O83        Ni102   1.918       .  S
O83          C89   1.267       .  A
O84        Ni102   1.902       .  S
O84          C86   1.268       .  A
Ni85         O88   1.941       .  S
Ni85         O90   1.916       .  S
C86          O96   1.276       .  A
C86        C2378   1.496       .  S
O87        Ni103   1.901       .  S
O87          C93   1.268       .  A
O88          C93   1.278       .  A
C89        C2461   1.454       .  S
O90          C92   1.269       .  A
O91        Ni102   1.918       .  S
C92          O98   1.270       .  A
C92        C2394   1.482       .  S
C93        C2362   1.484       .  S
H94          O95   0.966       .  S
O95        Ni103   1.903       .  S
O95         Ni97   1.888       .  S
O95        Ni102   1.896       .  S
O96         Ni97   1.945       .  S
Ni97        O101   1.911       .  S
Ni97         O99   1.937       .  S
O98        Ni103   1.925       .  S
C100        O101   1.274       .  A
C100       C2346   1.488       .  S
O105       Ni111   1.925       .  S
O105        C126   1.272       .  A
O106       Ni129   1.887       .  S
O106        C115   1.261   1_556  A
O107       Ni111   1.906       .  S
O107       Ni129   1.897       .  S
O107       Ni123   1.934       .  S
O107        H130   0.966       .  S
C108        O125   1.288   1_655  A
C108        O117   1.279   1_655  A
C108       C2445   1.501       .  S
O109       Ni128   1.923   1_554  S
O109        C115   1.268       .  A
O110       Ni128   1.898   1_554  S
O110        C112   1.265   1_454  A
Ni111       O114   1.938       .  S
Ni111       O116   1.916       .  S
C112        O122   1.276   1_655  A
C112       C2301   1.491   1_556  S
O113       Ni129   1.914       .  S
O113        C119   1.273       .  A
O114        C119   1.277       .  A
C115       C2314   1.459       .  S
O116        C118   1.269       .  A
O117       Ni128   1.920       .  S
C118        O124   1.273       .  A
C118       C2330   1.505       .  S
C119       C2282   1.499       .  S
H120        O121   0.966       .  S
O121       Ni129   1.904       .  S
O121       Ni123   1.889       .  S
O121       Ni128   1.895       .  S
O122       Ni123   1.944       .  S
Ni123       O127   1.912       .  S
Ni123       O125   1.946       .  S
O124       Ni129   1.927       .  S
C126        O127   1.276       .  A
C126       C2493   1.494       .  S
O131       Ni137   1.935       .  S
O131        C152   1.275       .  A
O132       Ni155   1.888       .  S
O132        C141   1.260       .  A
O133       Ni137   1.912       .  S
O133       Ni155   1.898       .  S
O133       Ni149   1.934       .  S
O133        H156   0.966       .  S
C134        O151   1.287       .  A
C134        O143   1.280       .  A
C134       C2637   1.506       .  S
O135       Ni154   1.922       .  S
O135        C141   1.268       .  A
O136       Ni154   1.899       .  S
O136        C138   1.265       .  A
Ni137       O140   1.948       .  S
Ni137       O142   1.925       .  S
C138        O148   1.277       .  A
C138       C2253   1.498       .  S
O139       Ni155   1.907       .  S
O139        C145   1.269       .  A
O140        C145   1.280       .  A
C141       C2317   1.459       .  S
O142        C144   1.272       .  A
O143       Ni154   1.921       .  S
C144        O150   1.269       .  A
C144       C2269   1.496       .  S
C145       C2234   1.496       .  S
H146        O147   0.967       .  S
O147       Ni155   1.899       .  S
O147       Ni149   1.884       .  S
O147       Ni154   1.889       .  S
O148       Ni149   1.946       .  S
Ni149       O153   1.906       .  S
Ni149       O151   1.944       .  S
O150       Ni155   1.920       .  S
C152        O153   1.274       .  A
C152       C2349   1.495       .  S
O157       Ni163   1.923       .  S
O157        C178   1.269       .  A
O158       Ni181   1.927       .  S
O158        C167   1.280       .  A
O159       Ni163   1.889       .  S
O159       Ni181   1.890       .  S
O159       Ni175   1.900       .  S
O159        H182   0.966       .  S
C160        O177   1.270       .  A
C160        O169   1.280       .  A
C160       C2170   1.494       .  S
O161       Ni180   1.932       .  S
O161        C167   1.277       .  A
O162       Ni180   1.923       .  S
O162        C164   1.270       .  A
Ni163       O166   1.921       .  S
Ni163       O168   1.900       .  S
C164        O174   1.272       .  A
C164       C2218   1.499       .  S
O165       Ni181   1.947       .  S
O165        C171   1.291       .  A
O166        C171   1.277       .  A
C167       C2154   1.493       .  S
O168        C170   1.268       .  A
O169       Ni180   1.944       .  S
C170        O176   1.277       .  A
C170       C2365   1.505       .  S
C171       C2186   1.505       .  S
H172        O173   0.966       .  S
O173       Ni181   1.932       .  S
O173       Ni175   1.895       .  S
O173       Ni180   1.903       .  S
O174       Ni175   1.923       .  S
Ni175       O179   1.893       .  S
Ni175       O177   1.908       .  S
O176       Ni181   1.949       .  S
C178        O179   1.261       .  A
C178       C2202   1.465       .  S
O183       Ni189   1.929       .  S
O183        C204   1.270       .  A
O184       Ni207   1.921       .  S
O184        C193   1.279       .  A
O185       Ni189   1.892       .  S
O185       Ni207   1.889       .  S
O185       Ni201   1.894       .  S
O185        H208   0.967       .  S
C186        O203   1.267       .  A
C186        O195   1.280       .  A
C186       C2090   1.498       .  S
O187       Ni206   1.932       .  S
O187        C193   1.275       .  A
O188       Ni206   1.925       .  S
O188        C190   1.270       .  A
Ni189       O192   1.924       .  S
Ni189       O194   1.899       .  S
C190        O200   1.273       .  A
C190       C2122   1.508       .  S
O191       Ni207   1.938       .  S
O191        C197   1.287   1_455  A
O192        C197   1.280   1_455  A
C193       C2074   1.503       .  S
O194        C196   1.265       .  A
O195       Ni206   1.949       .  S
C196        O202   1.278       .  A
C196       C2106   1.497   1_455  S
C197       C2138   1.500       .  S
H198        O199   0.965       .  S
O199       Ni207   1.931       .  S
O199       Ni201   1.894       .  S
O199       Ni206   1.902       .  S
O200       Ni201   1.925       .  S
Ni201       O205   1.882       .  S
Ni201       O203   1.903       .  S
O202       Ni207   1.946       .  S
C204        O205   1.260       .  A
C204       C2205   1.461       .  S
O209       Ni215   1.927       .  S
O209        C230   1.270       .  A
O210       Ni233   1.908       .  S
O210        C219   1.276       .  A
O211       Ni215   1.888       .  S
O211       Ni233   1.886       .  S
O211       Ni227   1.896       .  S
O211        H234   0.965       .  S
C212        O229   1.271       .  A
C212        O221   1.278       .  A
C212       C2026   1.491       .  S
O213       Ni232   1.929       .  S
O213        C219   1.273       .  A
O214       Ni232   1.922       .  S
O214        C216   1.271       .  A
Ni215       O218   1.927       .  S
Ni215       O220   1.903       .  S
C216        O226   1.269       .  A
C216       C2042   1.488       .  S
O217       Ni233   1.939       .  S
O217        C223   1.288       .  A
O218        C223   1.277       .  A
C219       C2010   1.491       .  S
O220        C222   1.267       .  A
O221       Ni232   1.938       .  S
C222        O228   1.277       .  A
C222       C2413   1.496       .  S
C223       C2189   1.508       .  S
H224        O225   0.966       .  S
O225       Ni233   1.925       .  S
O225       Ni227   1.892       .  S
O225       Ni232   1.903       .  S
O226       Ni227   1.923       .  S
Ni227       O231   1.880       .  S
Ni227       O229   1.905       .  S
O228       Ni233   1.949       .  S
C230        O231   1.259       .  A
C230       C2058   1.460       .  S
O235       Ni241   1.928   1_556  S
O235        C256   1.270       .  A
O236       Ni259   1.918       .  S
O236        C245   1.277       .  A
O237       Ni241   1.892       .  S
O237       Ni259   1.887       .  S
O237       Ni253   1.899       .  S
O237        H260   0.966       .  S
C238        O255   1.271       .  A
C238        O247   1.278       .  A
C238       C1949   1.487       .  S
O239       Ni258   1.928       .  S
O239        C245   1.274       .  A
O240       Ni258   1.922       .  S
O240        C242   1.270       .  A
Ni241       O244   1.925       .  S
Ni241       O246   1.899   1_554  S
C242        O252   1.270       .  A
C242       C1978   1.499       .  S
O243       Ni259   1.941       .  S
O243        C249   1.287       .  A
O244        C249   1.281       .  A
C245       C2077   1.484       .  S
O246        C248   1.267   1_556  A
O247       Ni258   1.938       .  S
C248        O254   1.276       .  A
C248       C1965   1.497   1_654  S
C249       C1997   1.507   1_655  S
H250        O251   0.966       .  S
O251       Ni259   1.928       .  S
O251       Ni253   1.890       .  S
O251       Ni258   1.904       .  S
O252       Ni253   1.925       .  S
Ni253       O257   1.880       .  S
Ni253       O255   1.906       .  S
O254       Ni259   1.944       .  S
C256        O257   1.259   1_556  A
C256       C2061   1.455       .  S
O261       Ni267   1.931       .  S
O261        C282   1.273       .  A
O262       Ni285   1.917       .  S
O262        C271   1.275   1_554  A
O263       Ni267   1.895       .  S
O263       Ni285   1.887       .  S
O263       Ni279   1.898       .  S
O263        H286   0.968       .  S
C264        O281   1.269       .  A
C264        O273   1.279       .  A
C264       C2250   1.493       .  S
O265       Ni284   1.936       .  S
O265        C271   1.278   1_554  A
O266       Ni284   1.926       .  S
O266        C268   1.271       .  A
Ni267       O270   1.931       .  S
Ni267       O272   1.907       .  S
C268        O278   1.269       .  A
C268       C2477   1.496       .  S
O269       Ni285   1.931       .  S
O269        C275   1.285       .  A
O270        C275   1.281       .  A
C271       C2157   1.504       .  S
O272        C274   1.269       .  A
O273       Ni284   1.940       .  S
C274        O280   1.277       .  A
C274       C1914   1.501       .  S
C275       C1994   1.496       .  S
H276        O277   0.962       .  S
O277       Ni285   1.925       .  S
O277       Ni279   1.895       .  S
O277       Ni284   1.907       .  S
O278       Ni279   1.924       .  S
Ni279       O283   1.879       .  S
Ni279       O281   1.909       .  S
O280       Ni285   1.947       .  S
C282        O283   1.259       .  A
C282       C1933   1.463       .  S
O287       Ni293   1.922       .  S
O287        C308   1.268       .  A
O288       Ni311   1.911       .  S
O288        C297   1.275       .  A
O289       Ni293   1.894       .  S
O289       Ni311   1.886       .  S
O289       Ni305   1.900       .  S
O289        H312   0.967       .  S
C290        O307   1.268       .  A
C290        O299   1.279       .  A
C290       C2605   1.491       .  S
O291       Ni310   1.926       .  S
O291        C297   1.273       .  A
O292       Ni310   1.918       .  S
O292        C294   1.269       .  A
Ni293       O296   1.921       .  S
Ni293       O298   1.900       .  S
C294        O304   1.271       .  A
C294       C2397   1.483       .  S
O295       Ni311   1.938       .  S
O295        C301   1.285       .  A
O296        C301   1.280       .  A
C297       C2013   1.490       .  S
O298        C300   1.265       .  A
O299       Ni310   1.946       .  S
C300        O306   1.279       .  A
C300       C1898   1.499       .  S
C301       C2141   1.506       .  S
H302        O303   0.966       .  S
O303       Ni311   1.935       .  S
O303       Ni305   1.899       .  S
O303       Ni310   1.913       .  S
O304       Ni305   1.926       .  S
Ni305       O309   1.883       .  S
Ni305       O307   1.897       .  S
O306       Ni311   1.951       .  S
C308        O309   1.257       .  A
C308       C1930   1.455       .  S
O313       Ni319   1.934       .  S
O313        C334   1.278       .  A
O314       Ni337   1.877       .  S
O314        C323   1.258       .  A
O315       Ni319   1.900       .  S
O315       Ni337   1.891       .  S
O315       Ni331   1.926       .  S
O315        H338   0.965       .  S
C316        O333   1.287       .  A
C316        O325   1.281       .  A
C316       C1882   1.501       .  S
O317       Ni336   1.923       .  S
O317        C323   1.271       .  A
O318       Ni336   1.901       .  S
O318        C320   1.267       .  A
Ni319       O322   1.948       .  S
Ni319       O324   1.923       .  S
C320        O330   1.275       .  A
C320       C1850   1.500       .  S
O321       Ni337   1.900       .  S
O321        C327   1.266       .  A
O322        C327   1.281       .  A
C323       C1869   1.472       .  S
O324        C326   1.272       .  A
O325       Ni336   1.919       .  S
C326        O332   1.271       .  A
C326       C1981   1.501       .  S
C327       C1901   1.497       .  S
H328        O329   0.967       .  S
O329       Ni337   1.893       .  S
O329       Ni331   1.880       .  S
O329       Ni336   1.885       .  S
O330       Ni331   1.943       .  S
Ni331       O335   1.908       .  S
Ni331       O333   1.938       .  S
O332       Ni337   1.931       .  S
C334        O335   1.274       .  A
C334       C1834   1.492       .  S
O339       Ni345   1.929       .  S
O339        C360   1.274       .  A
O340       Ni363   1.882       .  S
O340        C349   1.255       .  A
O341       Ni345   1.910       .  S
O341       Ni363   1.898       .  S
O341       Ni357   1.933       .  S
O341        H364   0.965       .  S
C342        O359   1.288       .  A
C342        O351   1.279       .  A
C342       C1818   1.504       .  S
O343       Ni362   1.914       .  S
O343        C349   1.266       .  A
O344       Ni362   1.899       .  S
O344        C346   1.266       .  A
Ni345       O348   1.945       .  S
Ni345       O350   1.924       .  S
C346        O356   1.277       .  A
C346       C1802   1.496       .  S
O347       Ni363   1.896       .  S
O347        C353   1.265       .  A
O348        C353   1.279       .  A
C349       C1866   1.446       .  S
O350        C352   1.271       .  A
O351       Ni362   1.916       .  S
C352        O358   1.267       .  A
C352       C2045   1.490       .  S
C353       C2109   1.488       .  S
H354        O355   0.967       .  S
O355       Ni363   1.901       .  S
O355       Ni357   1.886       .  S
O355       Ni362   1.893       .  S
O356       Ni357   1.942       .  S
Ni357       O361   1.919       .  S
Ni357       O359   1.942       .  S
O358       Ni363   1.917       .  S
C360        O361   1.277       .  A
C360       C1786   1.489       .  S
O365       Ni371   1.928       .  S
O365        C386   1.273       .  A
O366       Ni389   1.883       .  S
O366        C375   1.260   1_556  A
O367       Ni371   1.903       .  S
O367       Ni389   1.895       .  S
O367       Ni383   1.926       .  S
O367        H390   0.966       .  S
C368        O385   1.287       .  A
C368        O377   1.277       .  A
C368       C1738   1.482       .  S
O369       Ni388   1.926   1_554  S
O369        C375   1.269       .  A
O370       Ni388   1.893   1_554  S
O370        C372   1.267   1_554  A
Ni371       O374   1.937       .  S
Ni371       O376   1.921       .  S
C372        O382   1.279       .  A
C372       C1946   1.498   1_556  S
O373       Ni389   1.914       .  S
O373        C379   1.273       .  A
O374        C379   1.278       .  A
C375       C1754   1.462       .  S
O376        C378   1.271       .  A
O377       Ni388   1.922       .  S
C378        O384   1.269       .  A
C378       C1770   1.496       .  S
C379       C1722   1.495       .  S
H380        O381   0.967       .  S
O381       Ni389   1.899       .  S
O381       Ni383   1.891       .  S
O381       Ni388   1.895       .  S
O382       Ni383   1.951       .  S
Ni383       O387   1.925       .  S
Ni383       O385   1.937       .  S
O384       Ni389   1.927       .  S
C386        O387   1.280       .  A
C386       C1789   1.503       .  S
O391       Ni397   1.935       .  S
O391        C412   1.278       .  A
O392       Ni415   1.889       .  S
O392        C401   1.260       .  A
O393       Ni397   1.906       .  S
O393       Ni415   1.898       .  S
O393       Ni409   1.928       .  S
O393        H416   0.966       .  S
C394        O411   1.286       .  A
C394        O403   1.279       .  A
C394       C1885   1.499       .  S
O395       Ni414   1.920       .  S
O395        C401   1.267       .  A
O396       Ni414   1.898       .  S
O396        C398   1.267       .  A
Ni397       O400   1.943       .  S
Ni397       O402   1.922       .  S
C398        O408   1.273       .  A
C398       C1674   1.494       .  S
O399       Ni415   1.909       .  S
O399        C405   1.271       .  A
O400        C405   1.279       .  A
C401       C1757   1.457       .  S
O402        C404   1.271       .  A
O403       Ni414   1.917       .  S
C404        O410   1.269       .  A
C404       C1709   1.488       .  S
C405       C1693   1.495       .  S
H406        O407   0.967       .  S
O407       Ni415   1.901       .  S
O407       Ni409   1.888       .  S
O407       Ni414   1.893       .  S
O408       Ni409   1.934       .  S
Ni409       O413   1.916       .  S
Ni409       O411   1.938       .  S
O410       Ni415   1.922       .  S
C412        O413   1.274       .  A
C412       C1658   1.498       .  S
O417       Ni423   1.937       .  S
O417        C438   1.279       .  A
O418       Ni441   1.882       .  S
O418        C427   1.257       .  A
O419       Ni423   1.906       .  S
O419       Ni441   1.894       .  S
O419       Ni435   1.932       .  S
O419        H442   0.965       .  S
C420        O437   1.289       .  A
C420        O429   1.279       .  A
C420       C1821   1.500       .  S
O421       Ni440   1.911       .  S
O421        C427   1.266       .  A
O422       Ni440   1.895       .  S
O422        C424   1.266       .  A
Ni423       O426   1.952       .  S
Ni423       O428   1.919       .  S
C424        O434   1.275       .  A
C424       C1610   1.493       .  S
O425       Ni441   1.897       .  S
O425        C431   1.266       .  A
O426        C431   1.281       .  A
C427       C1642   1.466       .  S
O428        C430   1.271       .  A
O429       Ni440   1.913       .  S
C430        O436   1.270       .  A
C430       C1626   1.490       .  S
C431       C1597   1.501       .  S
H432        O433   0.966       .  S
O433       Ni441   1.903       .  S
O433       Ni435   1.885       .  S
O433       Ni440   1.892       .  S
O434       Ni435   1.938       .  S
Ni435       O439   1.914       .  S
Ni435       O437   1.949       .  S
O436       Ni441   1.924       .  S
C438        O439   1.275       .  A
C438       C1661   1.499       .  S
O443       Ni449   1.929   1_554  S
O443        C464   1.276       .  A
O444       Ni467   1.873       .  S
O444        C453   1.255       .  A
O445       Ni449   1.908       .  S
O445       Ni467   1.896       .  S
O445       Ni461   1.933       .  S
O445        H468   0.965       .  S
C446        O463   1.288       .  A
C446        O455   1.277       .  A
C446       C1741   1.492       .  S
O447       Ni466   1.916       .  S
O447        C453   1.266       .  A
O448       Ni466   1.896       .  S
O448        C450   1.266       .  A
Ni449       O452   1.945       .  S
Ni449       O454   1.923       .  S
C450        O460   1.275       .  A
C450       C2029   1.494       .  S
O451       Ni467   1.901       .  S
O451        C457   1.267       .  A
O452        C457   1.279       .  A
C453       C1645   1.441       .  S
O454        C456   1.271       .  A
O455       Ni466   1.920       .  S
C456        O462   1.270       .  A
C456       C1581   1.492       .  S
C457       C1562   1.490       .  S
H458        O459   0.966       .  S
O459       Ni467   1.900       .  S
O459       Ni461   1.886       .  S
O459       Ni466   1.896       .  S
O460       Ni461   1.942       .  S
Ni461       O465   1.912       .  S
Ni461       O463   1.944       .  S
O462       Ni467   1.925       .  S
C464        O465   1.274   1_554  A
C464       C1837   1.494       .  S
O469       Ni475   1.924       .  S
O469        C490   1.268       .  A
O470       Ni493   1.926       .  S
O470        C479   1.278       .  A
O471       Ni475   1.893       .  S
O471       Ni493   1.890       .  S
O471       Ni487   1.899       .  S
O471        H494   0.963       .  S
C472        O489   1.271       .  A
C472        O481   1.278       .  A
C472       C1853   1.486       .  S
O473       Ni492   1.923       .  S
O473        C479   1.274       .  A
O474       Ni492   1.919       .  S
O474        C476   1.270       .  A
Ni475       O478   1.921       .  S
Ni475       O480   1.895       .  S
C476        O486   1.269       .  A
C476       C1629   1.490       .  S
O477       Ni493   1.932       .  S
O477        C483   1.285       .  A
O478        C483   1.279       .  A
C479       C1498   1.501       .  S
O480        C482   1.267       .  A
O481       Ni492   1.936       .  S
C482        O488   1.278       .  A
C482       C1514   1.502       .  S
C483       C1546   1.485       .  S
H484        O485   0.966       .  S
O485       Ni493   1.927       .  S
O485       Ni487   1.894       .  S
O485       Ni492   1.905       .  S
O486       Ni487   1.921       .  S
Ni487       O491   1.886       .  S
Ni487       O489   1.905       .  S
O488       Ni493   1.947       .  S
C490        O491   1.260       .  A
C490       C1530   1.455       .  S
O495       Ni501   1.922       .  S
O495        C516   1.267       .  A
O496       Ni519   1.917       .  S
O496        C505   1.277   1_554  A
O497       Ni501   1.892       .  S
O497       Ni519   1.894       .  S
O497       Ni513   1.899       .  S
O497        H520   0.966       .  S
C498        O515   1.269       .  A
C498        O507   1.277       .  A
C498       C1677   1.482       .  S
O499       Ni518   1.923   1_556  S
O499        C505   1.272       .  A
O500       Ni518   1.918       .  S
O500        C502   1.270       .  A
Ni501       O504   1.915       .  S
Ni501       O506   1.896       .  S
C502        O512   1.271       .  A
C502       C1578   1.492       .  S
O503       Ni519   1.941       .  S
O503        C509   1.286       .  A
O504        C509   1.278       .  A
C505       C1466   1.492       .  S
O506        C508   1.264       .  A
O507       Ni518   1.935       .  S
C508        O514   1.280       .  A
C508       C2237   1.501       .  S
C509       C1485   1.500       .  S
H510        O511   0.965       .  S
O511       Ni519   1.927       .  S
O511       Ni513   1.896       .  S
O511       Ni518   1.905       .  S
O512       Ni513   1.928       .  S
Ni513       O517   1.888       .  S
Ni513       O515   1.898       .  S
O514       Ni519   1.954       .  S
C516        O517   1.260       .  A
C516       C1533   1.460       .  S
O521       Ni527   1.924       .  S
O521        C542   1.268       .  A
O522       Ni545   1.920       .  S
O522        C531   1.277       .  A
O523       Ni527   1.891       .  S
O523       Ni545   1.890       .  S
O523       Ni539   1.892       .  S
O523        H546   0.966       .  S
C524        O541   1.267       .  A
C524        O533   1.277       .  A
C524       C2525   1.491       .  S
O525       Ni544   1.931       .  S
O525        C531   1.273       .  A
O526       Ni544   1.920       .  S
O526        C528   1.271       .  A
Ni527       O530   1.920       .  S
Ni527       O532   1.896       .  S
C528        O538   1.269       .  A
C528       C2266   1.498       .  S
O529       Ni545   1.934       .  S
O529        C535   1.285       .  A
O530        C535   1.280       .  A
C531       C1421   1.501       .  S
O532        C534   1.265       .  A
O533       Ni544   1.940       .  S
C534        O540   1.278       .  A
C534       C1437   1.493       .  S
C535       C1549   1.498       .  S
H536        O537   0.965       .  S
O537       Ni545   1.932       .  S
O537       Ni539   1.906       .  S
O537       Ni544   1.913       .  S
O538       Ni539   1.925       .  S
Ni539       O543   1.885       .  S
Ni539       O541   1.901       .  S
O540       Ni545   1.951       .  S
C542        O543   1.259       .  A
C542       C1450   1.459       .  S
O547       Ni553   1.933       .  S
O547        C568   1.273       .  A
O548       Ni571   1.914       .  S
O548        C557   1.277       .  A
O549       Ni553   1.894       .  S
O549       Ni571   1.885       .  S
O549       Ni565   1.897       .  S
O549        H572   0.966       .  S
C550        O567   1.271       .  A
C550        O559   1.278       .  A
C550       C2381   1.499       .  S
O551       Ni570   1.928       .  S
O551        C557   1.274       .  A
O552       Ni570   1.922       .  S
O552        C554   1.270       .  A
Ni553       O556   1.935       .  S
Ni553       O558   1.909       .  S
C554        O564   1.272       .  A
C554       C2333   1.506       .  S
O555       Ni571   1.937       .  S
O555        C561   1.286       .  A
O556        C561   1.282       .  A
C557       C1469   1.496       .  S
O558        C560   1.267       .  A
O559       Ni570   1.942       .  S
C560        O566   1.278       .  A
C560       C1594   1.497       .  S
C561       C1405   1.508       .  S
H562        O563   0.966       .  S
O563       Ni571   1.930       .  S
O563       Ni565   1.894       .  S
O563       Ni570   1.906       .  S
O564       Ni565   1.925       .  S
Ni565       O569   1.879       .  S
Ni565       O567   1.910       .  S
O566       Ni571   1.943       .  S
C568        O569   1.259       .  A
C568       C1453   1.458       .  S
O573       Ni579   1.920   1_556  S
O573        C594   1.269       .  A
O574       Ni597   1.920       .  S
O574        C583   1.277       .  A
O575       Ni579   1.899       .  S
O575       Ni597   1.886       .  S
O575       Ni591   1.903       .  S
O575        H598   0.967       .  S
C576        O593   1.268       .  A
C576        O585   1.280       .  A
C576       C1354   1.494       .  S
O577       Ni596   1.932       .  S
O577        C583   1.274       .  A
O578       Ni596   1.919       .  S
O578        C580   1.269       .  A
Ni579       O582   1.920       .  S
Ni579       O584   1.911   1_554  S
C580        O590   1.272       .  A
C580       C1386   1.485       .  S
O581       Ni597   1.942       .  S
O581        C587   1.288       .  A
O582        C587   1.279       .  A
C583       C1418   1.495       .  S
O584        C586   1.270   1_556  A
O585       Ni596   1.950       .  S
C586        O592   1.275       .  A
C586       C2285   1.502       .  S
C587       C1482   1.505       .  S
H588        O589   0.966       .  S
O589       Ni597   1.935       .  S
O589       Ni591   1.899       .  S
O589       Ni596   1.910       .  S
O590       Ni591   1.929       .  S
Ni591       O595   1.884       .  S
Ni591       O593   1.904       .  S
O592       Ni597   1.942       .  S
C594        O595   1.259   1_556  A
C594       C1373   1.457       .  S
O599       Ni605   1.924       .  S
O599        C620   1.270       .  A
O600       Ni623   1.916       .  S
O600        C609   1.277       .  A
O601       Ni605   1.891       .  S
O601       Ni623   1.891       .  S
O601       Ni617   1.902       .  S
O601        H624   0.966       .  S
C602        O619   1.269       .  A
C602        O611   1.279       .  A
C602       C1325   1.489       .  S
O603       Ni622   1.930       .  S
O603        C609   1.276       .  A
O604       Ni622   1.918       .  S
O604        C606   1.269       .  A
Ni605       O608   1.924       .  S
Ni605       O610   1.897       .  S
C606        O616   1.271       .  A
C606       C1338   1.487       .  S
O607       Ni623   1.945       .  S
O607        C613   1.287       .  A
O608        C613   1.280       .  A
C609       C1501   1.493       .  S
O610        C612   1.265       .  A
O611       Ni622   1.942       .  S
C612        O618   1.281       .  A
C612       C1565   1.504       .  S
C613       C1402   1.511       .  S
H614        O615   0.965       .  S
O615       Ni623   1.928       .  S
O615       Ni617   1.893       .  S
O615       Ni622   1.904       .  S
O616       Ni617   1.926       .  S
Ni617       O621   1.884       .  S
Ni617       O619   1.904       .  S
O618       Ni623   1.955       .  S
C620        O621   1.259       .  A
C620       C1370   1.465       .  S
O625       Ni631   1.919       .  S
O625        C646   1.270       .  A
O626       Ni649   1.923       .  S
O626        C635   1.280   1_554  A
O627       Ni631   1.883       .  S
O627       Ni649   1.888       .  S
O627       Ni643   1.896       .  S
O627        H650   0.965       .  S
C628        O645   1.273       .  A
C628        O637   1.279       .  A
C628       C1258   1.498       .  S
O629       Ni648   1.928   1_556  S
O629        C635   1.273       .  A
O630       Ni648   1.921       .  S
O630        C632   1.269       .  A
Ni631       O634   1.917       .  S
Ni631       O636   1.898       .  S
C632        O642   1.269       .  A
C632       C1306   1.486       .  S
O633       Ni649   1.937       .  S
O633        C639   1.288       .  A
O634        C639   1.279       .  A
C635       C1242   1.495       .  S
O636        C638   1.267       .  A
O637       Ni648   1.938       .  S
C638        O644   1.278       .  A
C638       C1690   1.504       .  S
C639       C1293   1.498       .  S
H640        O641   0.966       .  S
O641       Ni649   1.925       .  S
O641       Ni643   1.893       .  S
O641       Ni648   1.897       .  S
O642       Ni643   1.919       .  S
Ni643       O647   1.887       .  S
Ni643       O645   1.911       .  S
O644       Ni649   1.953       .  S
C646        O647   1.259       .  A
C646       C1274   1.471       .  S
O651       Ni657   1.920       .  S
O651        C672   1.267       .  A
O652       Ni675   1.916       .  S
O652        C661   1.275       .  A
O653       Ni657   1.897       .  S
O653       Ni675   1.888       .  S
O653       Ni669   1.902       .  S
O653        H676   0.967       .  S
C654        O671   1.269       .  A
C654        O663   1.278       .  A
C654       C1194   1.490       .  S
O655       Ni674   1.930       .  S
O655        C661   1.273       .  A
O656       Ni674   1.915       .  S
O656        C658   1.269       .  A
Ni657       O660   1.920       .  S
Ni657       O662   1.902       .  S
C658        O668   1.271       .  A
C658       C1210   1.486       .  S
O659       Ni675   1.937       .  S
O659        C665   1.286       .  A
O660        C665   1.279       .  A
C661       C1178   1.483       .  S
O662        C664   1.268       .  A
O663       Ni674   1.942       .  S
C664        O670   1.275       .  A
C664       C2589   1.501       .  S
C665       C1226   1.502       .  S
H666        O667   0.966       .  S
O667       Ni675   1.930       .  S
O667       Ni669   1.901       .  S
O667       Ni674   1.909       .  S
O668       Ni669   1.929       .  S
Ni669       O673   1.886       .  S
Ni669       O671   1.900       .  S
O670       Ni675   1.943       .  S
C672        O673   1.258       .  A
C672       C1277   1.451       .  S
O677       Ni683   1.927   1_556  S
O677        C698   1.271       .  A
O678       Ni701   1.909       .  S
O678        C687   1.277       .  A
O679       Ni683   1.885       .  S
O679       Ni701   1.881       .  S
O679       Ni695   1.893       .  S
O679        H702   0.966       .  S
C680        O697   1.268       .  A
C680        O689   1.280       .  A
C680       C2298   1.492       .  S
O681       Ni700   1.932       .  S
O681        C687   1.275       .  A
O682       Ni700   1.926       .  S
O682        C684   1.270       .  A
Ni683       O686   1.918       .  S
Ni683       O688   1.905   1_554  S
C684        O694   1.271       .  A
C684       C2650   1.506       .  S
O685       Ni701   1.939       .  S
O685        C691   1.288       .  A
O686        C691   1.280       .  A
C687       C1149   1.484       .  S
O688        C690   1.269   1_556  A
O689       Ni700   1.942       .  S
C690        O696   1.275       .  A
C690       C1725   1.501   1_545  S
C691       C1290   1.503   1_545  S
H692        O693   0.966       .  S
O693       Ni701   1.927       .  S
O693       Ni695   1.887       .  S
O693       Ni700   1.900       .  S
O694       Ni695   1.923       .  S
Ni695       O699   1.873       .  S
Ni695       O697   1.906       .  S
O696       Ni701   1.944       .  S
C698        O699   1.257   1_556  A
C698       C1165   1.450       .  S
O703       Ni709   1.924       .  S
O703        C724   1.271       .  A
O704       Ni727   1.918       .  S
O704        C713   1.277       .  A
O705       Ni709   1.896       .  S
O705       Ni727   1.887       .  S
O705       Ni721   1.908       .  S
O705        H728   0.966       .  S
C706        O723   1.273       .  A
C706        O715   1.279       .  A
C706       C2426   1.493       .  S
O707       Ni726   1.927       .  S
O707        C713   1.272       .  A
O708       Ni726   1.915       .  S
O708        C710   1.267       .  A
Ni709       O712   1.933       .  S
Ni709       O714   1.903       .  S
C710        O720   1.273       .  A
C710       C2541   1.504       .  S
O711       Ni727   1.942       .  S
O711        C717   1.287       .  A
O712        C717   1.282       .  A
C713       C1181   1.498       .  S
O714        C716   1.267       .  A
O715       Ni726   1.940       .  S
C716        O722   1.275       .  A
C716       C1114   1.488       .  S
C717       C1130   1.507       .  S
H718        O719   0.966       .  S
O719       Ni727   1.930       .  S
O719       Ni721   1.889       .  S
O719       Ni726   1.900       .  S
O720       Ni721   1.929       .  S
Ni721       O725   1.881       .  S
Ni721       O723   1.912       .  S
O722       Ni727   1.937       .  S
C724        O725   1.260       .  A
C724       C1162   1.463       .  S
O729       Ni735   1.921       .  S
O729        C750   1.268       .  A
O730       Ni753   1.916       .  S
O730        C739   1.276       .  A
O731       Ni735   1.893       .  S
O731       Ni753   1.892       .  S
O731       Ni747   1.902       .  S
O731        H754   0.965       .  S
C732        O749   1.270       .  A
C732        O741   1.277       .  A
C732       C1805   1.491       .  S
O733       Ni752   1.922       .  S
O733        C739   1.271       .  A
O734       Ni752   1.925       .  S
O734        C736   1.271       .  A
Ni735       O738   1.918       .  S
Ni735       O740   1.895       .  S
C736        O746   1.268       .  A
C736       C1706   1.490       .  S
O737       Ni753   1.938       .  S
O737        C743   1.284   1_565  A
O738        C743   1.278   1_565  A
C739       C1146   1.496       .  S
O740        C742   1.267   1_565  A
O741       Ni752   1.935       .  S
C742        O748   1.276   1_545  A
C742       C2509   1.494       .  S
C743       C1229   1.503       .  S
H744        O745   0.966       .  S
O745       Ni753   1.930       .  S
O745       Ni747   1.895       .  S
O745       Ni752   1.907       .  S
O746       Ni747   1.919       .  S
Ni747       O751   1.882       .  S
Ni747       O749   1.911       .  S
O748       Ni753   1.941       .  S
C750        O751   1.258       .  A
C750       C1098   1.455       .  S
O755       Ni761   1.921       .  S
O755        C776   1.269       .  A
O756       Ni779   1.912       .  S
O756        C765   1.275       .  A
O757       Ni761   1.891       .  S
O757       Ni779   1.885       .  S
O757       Ni773   1.901       .  S
O757        H780   0.967       .  S
C758        O775   1.270       .  A
C758        O767   1.280       .  A
C758       C1613   1.490       .  S
O759       Ni778   1.934       .  S
O759        C765   1.276       .  A
O760       Ni778   1.923       .  S
O760        C762   1.271       .  A
Ni761       O764   1.926       .  S
Ni761       O766   1.900       .  S
C762        O772   1.269       .  A
C762       C1773   1.493       .  S
O763       Ni779   1.947       .  S
O763        C769   1.288       .  A
O764        C769   1.281       .  A
C765       C1245   1.477       .  S
O766        C768   1.264       .  A
O767       Ni778   1.945       .  S
C768        O774   1.278       .  A
C768       C1085   1.500       .  S
C769       C1133   1.514       .  S
H770        O771   0.966       .  S
O771       Ni779   1.930       .  S
O771       Ni773   1.891       .  S
O771       Ni778   1.907       .  S
O772       Ni773   1.923       .  S
Ni773       O777   1.884       .  S
Ni773       O775   1.901       .  S
O774       Ni779   1.946       .  S
C776        O777   1.259       .  A
C776       C1101   1.457       .  S
O781       Ni787   1.919       .  S
O781        C802   1.274       .  A
O782       Ni805   1.879       .  S
O782        C791   1.257   1_556  A
O783       Ni787   1.897       .  S
O783       Ni805   1.887       .  S
O783       Ni799   1.923       .  S
O783        H806   0.966       .  S
C784        O801   1.286   1_545  A
C784        O793   1.281   1_545  A
C784       C1053   1.505       .  S
O785       Ni804   1.927       .  S
O785        C791   1.272       .  A
O786       Ni804   1.903       .  S
O786        C788   1.266   1_554  A
Ni787       O790   1.932       .  S
Ni787       O792   1.926       .  S
C788        O798   1.282       .  A
C788       C1357   1.509   1_566  S
O789       Ni805   1.911       .  S
O789        C795   1.273       .  A
O790        C795   1.278       .  A
C791       C1066   1.458       .  S
O792        C794   1.269       .  A
O793       Ni804   1.925   1_556  S
C794        O800   1.268       .  A
C794       C2221   1.499       .  S
C795       C1962   1.486       .  S
H796        O797   0.966       .  S
O797       Ni805   1.898       .  S
O797       Ni799   1.888       .  S
O797       Ni804   1.885   1_556  S
O798       Ni799   1.958       .  S
Ni799       O803   1.926       .  S
Ni799       O801   1.935       .  S
O800       Ni805   1.922       .  S
C802        O803   1.279       .  A
C802       C1034   1.495       .  S
O807       Ni813   1.933       .  S
O807        C828   1.277       .  A
O808       Ni831   1.867       .  S
O808        C817   1.257       .  A
O809       Ni813   1.903       .  S
O809       Ni831   1.891       .  S
O809       Ni825   1.927       .  S
O809        H832   0.966       .  S
C810        O827   1.289       .  A
C810        O819   1.278       .  A
C810       C1018   1.506       .  S
O811       Ni830   1.936       .  S
O811        C817   1.273       .  A
O812       Ni830   1.902       .  S
O812        C814   1.267       .  A
Ni813       O816   1.947       .  S
Ni813       O818   1.923       .  S
C814        O824   1.277       .  A
C814       C1261   1.496       .  S
O815       Ni831   1.899       .  S
O815        C821   1.268       .  A
O816        C821   1.279       .  A
C817       C1069   1.456       .  S
O818        C820   1.269       .  A
O819       Ni830   1.931       .  S
C820        O826   1.273       .  A
C820       C2125   1.509       .  S
C821       C1917   1.494       .  S
H822        O823   0.966       .  S
O823       Ni831   1.892       .  S
O823       Ni825   1.888       .  S
O823       Ni830   1.892       .  S
O824       Ni825   1.949       .  S
Ni825       O829   1.919       .  S
Ni825       O827   1.936       .  S
O826       Ni831   1.932       .  S
C828        O829   1.277       .  A
C828       C1002   1.502       .  S
O833       Ni839   1.931       .  S
O833        C854   1.276       .  A
O834       Ni857   1.894       .  S
O834        C843   1.261       .  A
O835       Ni839   1.907       .  S
O835       Ni857   1.899       .  S
O835       Ni851   1.933       .  S
O835        H858   0.965       .  S
C836        O853   1.288       .  A
C836        O845   1.281       .  A
C836        C970   1.512       .  S
O837       Ni856   1.921       .  S
O837        C843   1.267       .  A
O838       Ni856   1.900       .  S
O838        C840   1.265       .  A
Ni839       O842   1.944       .  S
Ni839       O844   1.917       .  S
C840        O850   1.278       .  A
C840       C2173   1.497       .  S
O841       Ni857   1.906       .  S
O841        C847   1.270       .  A
O842        C847   1.279       .  A
C843        C986   1.459       .  S
O844        C846   1.269       .  A
O845       Ni856   1.928       .  S
C846        O852   1.272       .  A
C846       C1213   1.486       .  S
C847       C1082   1.489       .  S
H848        O849   0.966       .  S
O849       Ni857   1.906       .  S
O849       Ni851   1.891       .  S
O849       Ni856   1.898       .  S
O850       Ni851   1.945       .  S
Ni851       O855   1.918       .  S
Ni851       O853   1.947       .  S
O852       Ni857   1.929       .  S
C854        O855   1.276       .  A
C854       C1005   1.490       .  S
O859       Ni865   1.932   1_554  S
O859        C880   1.275       .  A
O860       Ni883   1.885       .  S
O860        C869   1.260       .  A
O861       Ni865   1.908       .  S
O861       Ni883   1.892       .  S
O861       Ni877   1.919       .  S
O861        H884   0.966       .  S
C862        O879   1.282       .  A
C862        O871   1.280       .  A
C862       C1050   1.493       .  S
O863       Ni882   1.928       .  S
O863        C869   1.272       .  A
O864       Ni882   1.902       .  S
O864        C866   1.266       .  A
Ni865       O868   1.939       .  S
Ni865       O870   1.920       .  S
C866        O876   1.277       .  A
C866       C1322   1.494       .  S
O867       Ni883   1.903       .  S
O867        C873   1.272       .  A
O868        C873   1.278       .  A
C869        C989   1.466       .  S
O870        C872   1.269       .  A
O871       Ni882   1.929       .  S
C872        O878   1.268       .  A
C872       C1309   1.486       .  S
C873       C1117   1.496       .  S
H874        O875   0.966       .  S
O875       Ni883   1.897       .  S
O875       Ni877   1.887       .  S
O875       Ni882   1.894       .  S
O876       Ni877   1.940       .  S
Ni877       O881   1.905       .  S
Ni877       O879   1.925       .  S
O878       Ni883   1.914       .  S
C880        O881   1.272   1_554  A
C880        C954   1.490       .  S
O885       Ni891   1.929       .  S
O885        C906   1.275       .  A
O886       Ni909   1.883       .  S
O886        C895   1.259       .  A
O887       Ni891   1.909       .  S
O887       Ni909   1.899       .  S
O887       Ni903   1.931       .  S
O887        H910   0.966       .  S
C888        O905   1.287       .  A
C888        O897   1.280       .  A
C888        C973   1.499   1_545  S
O889       Ni908   1.926       .  S
O889        C895   1.271       .  A
O890       Ni908   1.904       .  S
O890        C892   1.266       .  A
Ni891       O894   1.941       .  S
Ni891       O896   1.917       .  S
C892        O902   1.278       .  A
C892       C2093   1.497   1_545  S
O893       Ni909   1.912       .  S
O893        C899   1.272       .  A
O894        C899   1.278       .  A
C895        C938   1.463       .  S
O896        C898   1.269       .  A
O897       Ni908   1.929       .  S
C898        O904   1.271       .  A
C898       C1341   1.487       .  S
C899       C1434   1.505       .  S
H900        O901   0.966       .  S
O901       Ni909   1.903       .  S
O901       Ni903   1.888       .  S
O901       Ni908   1.896       .  S
O902       Ni903   1.948       .  S
Ni903       O907   1.911       .  S
Ni903       O905   1.943       .  S
O904       Ni909   1.925       .  S
C906        O907   1.274       .  A
C906       C1037   1.495       .  S
O911       Ni917   1.921       .  S
O911        C932   1.273       .  A
O912       Ni935   1.883       .  S
O912        C921   1.256       .  A
O913       Ni917   1.916       .  S
O913       Ni935   1.903       .  S
O913       Ni929   1.936       .  S
O913        H936   0.966       .  S
C914        O931   1.287       .  A
C914        O923   1.276       .  A
C914       C1021   1.498       .  S
O915       Ni934   1.920       .  S
O915        C921   1.266       .  A
O916       Ni934   1.899       .  S
O916        C918   1.268       .  A
Ni917       O920   1.940       .  S
Ni917       O922   1.912       .  S
C918        O928   1.275       .  A
C918       C1197   1.499       .  S
O919       Ni935   1.895       .  S
O919        C925   1.266       .  A
O920        C925   1.276       .  A
C921        C941   1.453       .  S
O922        C924   1.268       .  A
O923       Ni934   1.918       .  S
C924        O930   1.271       .  A
C924       C1389   1.487       .  S
C925       C1517   1.481       .  S
H926        O927   0.966       .  S
O927       Ni935   1.904       .  S
O927       Ni929   1.892       .  S
O927       Ni934   1.902       .  S
O928       Ni929   1.942       .  S
Ni929       O933   1.916       .  S
Ni929       O931   1.941       .  S
O930       Ni935   1.932       .  S
C932        O933   1.273       .  A
C932        C957   1.495       .  S
C937        C938   1.399       .  A
C937        C942   1.393       .  A
C937        H944   1.085       .  S
C938        C939   1.417       .  A
C939        C940   1.399       .  A
C939        C946   1.509       .  S
C940        C941   1.397       .  A
C940        H945   1.084       .  S
C941        C942   1.410       .  A
C942        C943   1.509       .  S
C943        H947   1.111       .  S
C943        H948   1.110       .  S
C943        H949   1.108       .  S
C946        H950   1.110       .  S
C946        H951   1.110       .  S
C946        H952   1.111       .  S
C953        C954   1.410       .  A
C953        C958   1.406       .  A
C953        H960   1.083       .  S
C954        C955   1.414       .  A
C955        C956   1.401       .  A
C955        C962   1.510       .  S
C956        C957   1.411       .  A
C956        H961   1.083       .  S
C957        C958   1.416       .  A
C958        C959   1.507       .  S
C959        H963   1.111       .  S
C959        H964   1.110       .  S
C959        H965   1.109       .  S
C962        H966   1.110   1_554  S
C962        H967   1.110   1_554  S
C962        H968   1.111       .  S
C969        C970   1.416       .  A
C969        C974   1.409       .  A
C969        H976   1.083       .  S
C970        C971   1.419       .  A
C971        C972   1.413       .  A
C971        C978   1.507       .  S
C972        C973   1.411       .  A
C972        H977   1.084       .  S
C973        C974   1.413       .  A
C974        C975   1.508   1_565  S
C975        H979   1.111       .  S
C975        H980   1.110       .  S
C975        H981   1.110       .  S
C978        H982   1.110       .  S
C978        H983   1.110       .  S
C978        H984   1.111       .  S
C985        C986   1.399       .  A
C985        C990   1.400       .  A
C985        H992   1.084       .  S
C986        C987   1.411   1_565  A
C987        C988   1.395       .  A
C987        C994   1.508       .  S
C988        C989   1.399       .  A
C988        H993   1.084       .  S
C989        C990   1.417   1_545  A
C990        C991   1.508       .  S
C991        H995   1.111       .  S
C991        H996   1.111       .  S
C991        H997   1.109   1_565  S
C994        H998   1.110       .  S
C994        H999   1.106       .  S
C994       H1000   1.111       .  S
C1001      C1002   1.414       .  A
C1001      C1006   1.406       .  A
C1001      H1008   1.083       .  S
C1002      C1003   1.419       .  A
C1003      C1004   1.407       .  A
C1003      C1010   1.508       .  S
C1004      C1005   1.408       .  A
C1004      H1009   1.084       .  S
C1005      C1006   1.412       .  A
C1006      C1007   1.508       .  S
C1007      H1011   1.111       .  S
C1007      H1012   1.110       .  S
C1007      H1013   1.110       .  S
C1010      H1014   1.110       .  S
C1010      H1015   1.109       .  S
C1010      H1016   1.111       .  S
C1017      C1018   1.404       .  A
C1017      C1022   1.408   1_565  A
C1017      H1024   1.084       .  S
C1018      C1019   1.431       .  A
C1019      C1020   1.407   1_565  A
C1019      C1026   1.511       .  S
C1020      C1021   1.400       .  A
C1020      H1025   1.084       .  S
C1021      C1022   1.425       .  A
C1022      C1023   1.510       .  S
C1023      H1027   1.111       .  S
C1023      H1028   1.109       .  S
C1023      H1029   1.110       .  S
C1026      H1030   1.110       .  S
C1026      H1031   1.110       .  S
C1026      H1032   1.111   1_565  S
C1033      C1034   1.412       .  A
C1033      C1038   1.403       .  A
C1033      H1040   1.083       .  S
C1034      C1035   1.414   1_565  A
C1035      C1036   1.407       .  A
C1035      C1042   1.507       .  S
C1036      C1037   1.413       .  A
C1036      H1041   1.083       .  S
C1037      C1038   1.415   1_545  A
C1038      C1039   1.510       .  S
C1039      H1043   1.111       .  S
C1039      H1044   1.110       .  S
C1039      H1045   1.111       .  S
C1042      H1046   1.108       .  S
C1042      H1047   1.110       .  S
C1042      H1048   1.111       .  S
C1049      C1050   1.409       .  A
C1049      C1054   1.409       .  A
C1049      H1056   1.084       .  S
C1050      C1051   1.413       .  A
C1051      C1052   1.405       .  A
C1051      C1058   1.509       .  S
C1052      C1053   1.415       .  A
C1052      H1057   1.083       .  S
C1053      C1054   1.419       .  A
C1054      C1055   1.507       .  S
C1055      H1059   1.111       .  S
C1055      H1060   1.109       .  S
C1055      H1061   1.110       .  S
C1058      H1062   1.110   1_556  S
C1058      H1063   1.110       .  S
C1058      H1064   1.111   1_556  S
C1065      C1066   1.396       .  A
C1065      C1070   1.392       .  A
C1065      H1072   1.085       .  S
C1066      C1067   1.414       .  A
C1067      C1068   1.398       .  A
C1067      C1074   1.508   1_554  S
C1068      C1069   1.399       .  A
C1068      H1073   1.084       .  S
C1069      C1070   1.413       .  A
C1070      C1071   1.510       .  S
C1071      H1075   1.111       .  S
C1071      H1076   1.110       .  S
C1071      H1077   1.110       .  S
C1074      H1078   1.110       .  S
C1074      H1079   1.110       .  S
C1074      H1080   1.111       .  S
C1081      C1082   1.402       .  A
C1081      C1086   1.410       .  A
C1081      H1088   1.084       .  S
C1082      C1083   1.418       .  A
C1083      C1084   1.404       .  A
C1083      C1090   1.510       .  S
C1084      C1085   1.404       .  A
C1084      H1089   1.084       .  S
C1085      C1086   1.427       .  A
C1086      C1087   1.509       .  S
C1087      H1091   1.111       .  S
C1087      H1092   1.111       .  S
C1087      H1093   1.109       .  S
C1090      H1094   1.110       .  S
C1090      H1095   1.109       .  S
C1090      H1096   1.111       .  S
C1097      C1098   1.399       .  A
C1097      C1102   1.396       .  A
C1097      H1104   1.085       .  S
C1098      C1099   1.416       .  A
C1099      C1100   1.393       .  A
C1099      C1106   1.509       .  S
C1100      C1101   1.397       .  A
C1100      H1105   1.085       .  S
C1101      C1102   1.413       .  A
C1102      C1103   1.508       .  S
C1103      H1107   1.111       .  S
C1103      H1108   1.110       .  S
C1103      H1109   1.110       .  S
C1106      H1110   1.110       .  S
C1106      H1111   1.102       .  S
C1106      H1112   1.111       .  S
C1113      C1114   1.409       .  A
C1113      C1118   1.410       .  A
C1113      H1120   1.084       .  S
C1114      C1115   1.413       .  A
C1115      C1116   1.401       .  A
C1115      C1122   1.509       .  S
C1116      C1117   1.409       .  A
C1116      H1121   1.084       .  S
C1117      C1118   1.418       .  A
C1118      C1119   1.507       .  S
C1119      H1123   1.111       .  S
C1119      H1124   1.110       .  S
C1119      H1125   1.110       .  S
C1122      H1126   1.111       .  S
C1122      H1127   1.110       .  S
C1122      H1128   1.111       .  S
C1129      C1130   1.413       .  A
C1129      C1134   1.414   1_545  A
C1129      H1136   1.084       .  S
C1130      C1131   1.415       .  A
C1131      C1132   1.409   1_545  A
C1131      C1138   1.509       .  S
C1132      C1133   1.416       .  A
C1132      H1137   1.083       .  S
C1133      C1134   1.420       .  A
C1134      C1135   1.508       .  S
C1135      H1139   1.111       .  S
C1135      H1140   1.110       .  S
C1135      H1141   1.111       .  S
C1138      H1142   1.110       .  S
C1138      H1143   1.110       .  S
C1138      H1144   1.111       .  S
C1145      C1146   1.406   1_545  A
C1145      C1150   1.406       .  A
C1145      H1152   1.084       .  S
C1146      C1147   1.428       .  A
C1147      C1148   1.401       .  A
C1147      C1154   1.511       .  S
C1148      C1149   1.397   1_565  A
C1148      H1153   1.084       .  S
C1149      C1150   1.420       .  A
C1150      C1151   1.509       .  S
C1151      H1155   1.111       .  S
C1151      H1156   1.111       .  S
C1151      H1157   1.108       .  S
C1154      H1158   1.110       .  S
C1154      H1159   1.110       .  S
C1154      H1160   1.111       .  S
C1161      C1162   1.401       .  A
C1161      C1166   1.393       .  A
C1161      H1168   1.084       .  S
C1162      C1163   1.417       .  A
C1163      C1164   1.397       .  A
C1163      C1170   1.509       .  S
C1164      C1165   1.395       .  A
C1164      H1169   1.085       .  S
C1165      C1166   1.410       .  A
C1166      C1167   1.510   1_556  S
C1167      H1171   1.111       .  S
C1167      H1172   1.110       .  S
C1167      H1173   1.111       .  S
C1170      H1174   1.110       .  S
C1170      H1175   1.110       .  S
C1170      H1176   1.111       .  S
C1177      C1178   1.397       .  A
C1177      C1182   1.405       .  A
C1177      H1184   1.084       .  S
C1178      C1179   1.418       .  A
C1179      C1180   1.406       .  A
C1179      C1186   1.509       .  S
C1180      C1181   1.406       .  A
C1180      H1185   1.084       .  S
C1181      C1182   1.429       .  A
C1182      C1183   1.511       .  S
C1183      H1187   1.111       .  S
C1183      H1188   1.110       .  S
C1183      H1189   1.110       .  S
C1186      H1190   1.110       .  S
C1186      H1191   1.109       .  S
C1186      H1192   1.111       .  S
C1193      C1194   1.408       .  A
C1193      C1198   1.406       .  A
C1193      H1200   1.084       .  S
C1194      C1195   1.412       .  A
C1195      C1196   1.407       .  A
C1195      C1202   1.507       .  S
C1196      C1197   1.412       .  A
C1196      H1201   1.084       .  S
C1197      C1198   1.419       .  A
C1198      C1199   1.508       .  S
C1199      H1203   1.111       .  S
C1199      H1204   1.110       .  S
C1199      H1205   1.111       .  S
C1202      H1206   1.110       .  S
C1202      H1207   1.111       .  S
C1202      H1208   1.111       .  S
C1209      C1210   1.405       .  A
C1209      C1214   1.407   1_545  A
C1209      H1216   1.084       .  S
C1210      C1211   1.416       .  A
C1211      C1212   1.408   1_545  A
C1211      C1218   1.507       .  S
C1212      C1213   1.406       .  A
C1212      H1217   1.084       .  S
C1213      C1214   1.415       .  A
C1214      C1215   1.507       .  S
C1215      H1219   1.111   1_565  S
C1215      H1220   1.111       .  S
C1215      H1221   1.105       .  S
C1218      H1222   1.109       .  S
C1218      H1223   1.111       .  S
C1218      H1224   1.111   1_545  S
C1225      C1226   1.416       .  A
C1225      C1230   1.409       .  A
C1225      H1232   1.083       .  S
C1226      C1227   1.415       .  A
C1227      C1228   1.405       .  A
C1227      C1234   1.509       .  S
C1228      C1229   1.414       .  A
C1228      H1233   1.083       .  S
C1229      C1230   1.415       .  A
C1230      C1231   1.508       .  S
C1231      H1235   1.111       .  S
C1231      H1236   1.110   1_545  S
C1231      H1237   1.111       .  S
C1234      H1238   1.110       .  S
C1234      H1239   1.111       .  S
C1234      H1240   1.110       .  S
C1241      C1242   1.405       .  A
C1241      C1246   1.405       .  A
C1241      H1248   1.082       .  S
C1242      C1243   1.427       .  A
C1243      C1244   1.406       .  A
C1243      C1250   1.510       .  S
C1244      C1245   1.397       .  A
C1244      H1249   1.084       .  S
C1245      C1246   1.414       .  A
C1246      C1247   1.509       .  S
C1247      H1251   1.111       .  S
C1247      H1252   1.111       .  S
C1247      H1253   1.109       .  S
C1250      H1254   1.109       .  S
C1250      H1255   1.110       .  S
C1250      H1256   1.111       .  S
C1257      C1258   1.411       .  A
C1257      C1262   1.406       .  A
C1257      H1264   1.084       .  S
C1258      C1259   1.417       .  A
C1259      C1260   1.409       .  A
C1259      C1266   1.507       .  S
C1260      C1261   1.410       .  A
C1260      H1265   1.084       .  S
C1261      C1262   1.417       .  A
C1262      C1263   1.509       .  S
C1263      H1267   1.111       .  S
C1263      H1268   1.110       .  S
C1263      H1269   1.111       .  S
C1266      H1270   1.110       .  S
C1266      H1271   1.110       .  S
C1266      H1272   1.111       .  S
C1273      C1274   1.403       .  A
C1273      C1278   1.391       .  A
C1273      H1280   1.084       .  S
C1274      C1275   1.420   1_565  A
C1275      C1276   1.401       .  A
C1275      C1282   1.509       .  S
C1276      C1277   1.397       .  A
C1276      H1281   1.084       .  S
C1277      C1278   1.407   1_545  A
C1278      C1279   1.510       .  S
C1279      H1283   1.111       .  S
C1279      H1284   1.109       .  S
C1279      H1285   1.111   1_565  S
C1282      H1286   1.110       .  S
C1282      H1287   1.110       .  S
C1282      H1288   1.111       .  S
C1289      C1290   1.416       .  A
C1289      C1294   1.404       .  A
C1289      H1296   1.083       .  S
C1290      C1291   1.415       .  A
C1291      C1292   1.407       .  A
C1291      C1298   1.508       .  S
C1292      C1293   1.415       .  A
C1292      H1297   1.084       .  S
C1293      C1294   1.412       .  A
C1294      C1295   1.508       .  S
C1295      H1299   1.111   1_554  S
C1295      H1300   1.110       .  S
C1295      H1301   1.109       .  S
C1298      H1302   1.110   1_565  S
C1298      H1303   1.110       .  S
C1298      H1304   1.111       .  S
C1305      C1306   1.406   1_545  A
C1305      C1310   1.406       .  A
C1305      H1312   1.084       .  S
C1306      C1307   1.416   1_554  A
C1307      C1308   1.404   1_565  A
C1307      C1314   1.508       .  S
C1308      C1309   1.405       .  A
C1308      H1313   1.083       .  S
C1309      C1310   1.416   1_556  A
C1310      C1311   1.508       .  S
C1311      H1315   1.111       .  S
C1311      H1316   1.111       .  S
C1311      H1317   1.109       .  S
C1314      H1318   1.109       .  S
C1314      H1319   1.110       .  S
C1314      H1320   1.111       .  S
C1321      C1322   1.404       .  A
C1321      C1326   1.403       .  A
C1321      H1328   1.084       .  S
C1322      C1323   1.424       .  A
C1323      C1324   1.409       .  A
C1323      C1330   1.509       .  S
C1324      C1325   1.403       .  A
C1324      H1329   1.084       .  S
C1325      C1326   1.420       .  A
C1326      C1327   1.510       .  S
C1327      H1331   1.111       .  S
C1327      H1332   1.109       .  S
C1327      H1333   1.110       .  S
C1330      H1334   1.109       .  S
C1330      H1335   1.111       .  S
C1330      H1336   1.111       .  S
C1337      C1338   1.405       .  A
C1337      C1342   1.408       .  A
C1337      H1344   1.084       .  S
C1338      C1339   1.417       .  A
C1339      C1340   1.406       .  A
C1339      C1346   1.508       .  S
C1340      C1341   1.404       .  A
C1340      H1345   1.084       .  S
C1341      C1342   1.417       .  A
C1342      C1343   1.508       .  S
C1343      H1347   1.111       .  S
C1343      H1348   1.111       .  S
C1343      H1349   1.109       .  S
C1346      H1350   1.109       .  S
C1346      H1351   1.111       .  S
C1346      H1352   1.111       .  S
C1353      C1354   1.401       .  A
C1353      C1358   1.412       .  A
C1353      H1360   1.084       .  S
C1354      C1355   1.419       .  A
C1355      C1356   1.407   1_554  A
C1355      C1362   1.509   1_554  S
C1356      C1357   1.406   1_556  A
C1356      H1361   1.083       .  S
C1357      C1358   1.431       .  A
C1358      C1359   1.509       .  S
C1359      H1363   1.111       .  S
C1359      H1364   1.109       .  S
C1359      H1365   1.110   1_545  S
C1362      H1366   1.109       .  S
C1362      H1367   1.110       .  S
C1362      H1368   1.111       .  S
C1369      C1370   1.400       .  A
C1369      C1374   1.396       .  A
C1369      H1376   1.085       .  S
C1370      C1371   1.417       .  A
C1371      C1372   1.398       .  A
C1371      C1378   1.509       .  S
C1372      C1373   1.396       .  A
C1372      H1377   1.084       .  S
C1373      C1374   1.413       .  A
C1374      C1375   1.509   1_556  S
C1375      H1379   1.111       .  S
C1375      H1380   1.108       .  S
C1375      H1381   1.110       .  S
C1378      H1382   1.110       .  S
C1378      H1383   1.110       .  S
C1378      H1384   1.111       .  S
C1385      C1386   1.405       .  A
C1385      C1390   1.409       .  A
C1385      H1392   1.084       .  S
C1386      C1387   1.414       .  A
C1387      C1388   1.407       .  A
C1387      C1394   1.507       .  S
C1388      C1389   1.405       .  A
C1388      H1393   1.084       .  S
C1389      C1390   1.416       .  A
C1390      C1391   1.507       .  S
C1391      H1395   1.111       .  S
C1391      H1396   1.110       .  S
C1391      H1397   1.107       .  S
C1394      H1398   1.108       .  S
C1394      H1399   1.111       .  S
C1394      H1400   1.111       .  S
C1401      C1402   1.415       .  A
C1401      C1406   1.408       .  A
C1401      H1408   1.083       .  S
C1402      C1403   1.418       .  A
C1403      C1404   1.413       .  A
C1403      C1410   1.508       .  S
C1404      C1405   1.415       .  A
C1404      H1409   1.083       .  S
C1405      C1406   1.417       .  A
C1406      C1407   1.509       .  S
C1407      H1411   1.111       .  S
C1407      H1412   1.110       .  S
C1407      H1413   1.111       .  S
C1410      H1414   1.110       .  S
C1410      H1415   1.110       .  S
C1410      H1416   1.111       .  S
C1417      C1418   1.402       .  A
C1417      C1422   1.408       .  A
C1417      H1424   1.084       .  S
C1418      C1419   1.423       .  A
C1419      C1420   1.406       .  A
C1419      C1426   1.510       .  S
C1420      C1421   1.404       .  A
C1420      H1425   1.084       .  S
C1421      C1422   1.428       .  A
C1422      C1423   1.510       .  S
C1423      H1427   1.111       .  S
C1423      H1428   1.110       .  S
C1423      H1429   1.110       .  S
C1426      H1430   1.110       .  S
C1426      H1431   1.109       .  S
C1426      H1432   1.111       .  S
C1433      C1434   1.413       .  A
C1433      C1438   1.407       .  A
C1433      H1440   1.083       .  S
C1434      C1435   1.420       .  A
C1435      C1436   1.409       .  A
C1435      C1442   1.508       .  S
C1436      C1437   1.408       .  A
C1436      H1441   1.084       .  S
C1437      C1438   1.414       .  A
C1438      C1439   1.509       .  S
C1439      H1443   1.111       .  S
C1439      H1444   1.111       .  S
C1439      H1445   1.110       .  S
C1442      H1446   1.110       .  S
C1442      H1447   1.110       .  S
C1442      H1448   1.111       .  S
C1449      C1450   1.402       .  A
C1449      C1454   1.396       .  A
C1449      H1456   1.084       .  S
C1450      C1451   1.410       .  A
C1451      C1452   1.398       .  A
C1451      C1458   1.508       .  S
C1452      C1453   1.403       .  A
C1452      H1457   1.085       .  S
C1453      C1454   1.408       .  A
C1454      C1455   1.507       .  S
C1455      H1459   1.111       .  S
C1455      H1460   1.109       .  S
C1455      H1461   1.111       .  S
C1458      H1462   1.109       .  S
C1458      H1463   1.111       .  S
C1458      H1464   1.111       .  S
C1465      C1466   1.400       .  A
C1465      C1470   1.404       .  A
C1465      H1472   1.084       .  S
C1466      C1467   1.424       .  A
C1467      C1468   1.405       .  A
C1467      C1474   1.511       .  S
C1468      C1469   1.403       .  A
C1468      H1473   1.084       .  S
C1469      C1470   1.426       .  A
C1470      C1471   1.509       .  S
C1471      H1475   1.111       .  S
C1471      H1476   1.111       .  S
C1471      H1477   1.109       .  S
C1474      H1478   1.111       .  S
C1474      H1479   1.109       .  S
C1474      H1480   1.111       .  S
C1481      C1482   1.417       .  A
C1481      C1486   1.409       .  A
C1481      H1488   1.083       .  S
C1482      C1483   1.416       .  A
C1483      C1484   1.406       .  A
C1483      C1490   1.509       .  S
C1484      C1485   1.412       .  A
C1484      H1489   1.083       .  S
C1485      C1486   1.414       .  A
C1486      C1487   1.509       .  S
C1487      H1491   1.111   1_554  S
C1487      H1492   1.110       .  S
C1487      H1493   1.110       .  S
C1490      H1494   1.110       .  S
C1490      H1495   1.110       .  S
C1490      H1496   1.111       .  S
C1497      C1498   1.414       .  A
C1497      C1502   1.404       .  A
C1497      H1504   1.083       .  S
C1498      C1499   1.416       .  A
C1499      C1500   1.408       .  A
C1499      C1506   1.508       .  S
C1500      C1501   1.412       .  A
C1500      H1505   1.083       .  S
C1501      C1502   1.412       .  A
C1502      C1503   1.509       .  S
C1503      H1507   1.111       .  S
C1503      H1508   1.111       .  S
C1503      H1509   1.109       .  S
C1506      H1510   1.110       .  S
C1506      H1511   1.110       .  S
C1506      H1512   1.111       .  S
C1513      C1514   1.416       .  A
C1513      C1518   1.405       .  A
C1513      H1520   1.083       .  S
C1514      C1515   1.420       .  A
C1515      C1516   1.407       .  A
C1515      C1522   1.508       .  S
C1516      C1517   1.404       .  A
C1516      H1521   1.084       .  S
C1517      C1518   1.409       .  A
C1518      C1519   1.508       .  S
C1519      H1523   1.111       .  S
C1519      H1524   1.110       .  S
C1519      H1525   1.110       .  S
C1522      H1526   1.109       .  S
C1522      H1527   1.111       .  S
C1522      H1528   1.111       .  S
C1529      C1530   1.400       .  A
C1529      C1534   1.397       .  A
C1529      H1536   1.085       .  S
C1530      C1531   1.407       .  A
C1531      C1532   1.397       .  A
C1531      C1538   1.507       .  S
C1532      C1533   1.403       .  A
C1532      H1537   1.084       .  S
C1533      C1534   1.411       .  A
C1534      C1535   1.508       .  S
C1535      H1539   1.111       .  S
C1535      H1540   1.109       .  S
C1535      H1541   1.110       .  S
C1538      H1542   1.109       .  S
C1538      H1543   1.111       .  S
C1538      H1544   1.111       .  S
C1545      C1546   1.409       .  A
C1545      C1550   1.409       .  A
C1545      H1552   1.084       .  S
C1546      C1547   1.410       .  A
C1547      C1548   1.401       .  A
C1547      C1554   1.509       .  S
C1548      C1549   1.414       .  A
C1548      H1553   1.083       .  S
C1549      C1550   1.417       .  A
C1550      C1551   1.508       .  S
C1551      H1555   1.111       .  S
C1551      H1556   1.110       .  S
C1551      H1557   1.110       .  S
C1554      H1558   1.111       .  S
C1554      H1559   1.110       .  S
C1554      H1560   1.111       .  S
C1561      C1562   1.399       .  A
C1561      C1566   1.408       .  A
C1561      H1568   1.084       .  S
C1562      C1563   1.420       .  A
C1563      C1564   1.407       .  A
C1563      C1570   1.509       .  S
C1564      C1565   1.406       .  A
C1564      H1569   1.084       .  S
C1565      C1566   1.429       .  A
C1566      C1567   1.510       .  S
C1567      H1571   1.111       .  S
C1567      H1572   1.110       .  S
C1567      H1573   1.109       .  S
C1570      H1574   1.110       .  S
C1570      H1575   1.109       .  S
C1570      H1576   1.111       .  S
C1577      C1578   1.406   1_556  A
C1577      C1582   1.408       .  A
C1577      H1584   1.084       .  S
C1578      C1579   1.418       .  A
C1579      C1580   1.409       .  A
C1579      C1586   1.508       .  S
C1580      C1581   1.406   1_554  A
C1580      H1585   1.084       .  S
C1581      C1582   1.417       .  A
C1582      C1583   1.508       .  S
C1583      H1587   1.111       .  S
C1583      H1588   1.111       .  S
C1583      H1589   1.109       .  S
C1586      H1590   1.109       .  S
C1586      H1591   1.111       .  S
C1586      H1592   1.111       .  S
C1593      C1594   1.402       .  A
C1593      C1598   1.403       .  A
C1593      H1600   1.084       .  S
C1594      C1595   1.422       .  A
C1595      C1596   1.412       .  A
C1595      C1602   1.508       .  S
C1596      C1597   1.406       .  A
C1596      H1601   1.084       .  S
C1597      C1598   1.426       .  A
C1598      C1599   1.511       .  S
C1599      H1603   1.111       .  S
C1599      H1604   1.110       .  S
C1599      H1605   1.109       .  S
C1602      H1606   1.111       .  S
C1602      H1607   1.109       .  S
C1602      H1608   1.111       .  S
C1609      C1610   1.412       .  A
C1609      C1614   1.408       .  A
C1609      H1616   1.084       .  S
C1610      C1611   1.415       .  A
C1611      C1612   1.403       .  A
C1611      C1618   1.508       .  S
C1612      C1613   1.408       .  A
C1612      H1617   1.084       .  S
C1613      C1614   1.412       .  A
C1614      C1615   1.506       .  S
C1615      H1619   1.111       .  S
C1615      H1620   1.110       .  S
C1615      H1621   1.110       .  S
C1618      H1622   1.110       .  S
C1618      H1623   1.110       .  S
C1618      H1624   1.111       .  S
C1625      C1626   1.404       .  A
C1625      C1630   1.405       .  A
C1625      H1632   1.084       .  S
C1626      C1627   1.418       .  A
C1627      C1628   1.408       .  A
C1627      C1634   1.508       .  S
C1628      C1629   1.406       .  A
C1628      H1633   1.084       .  S
C1629      C1630   1.418       .  A
C1630      C1631   1.509       .  S
C1631      H1635   1.111       .  S
C1631      H1636   1.111       .  S
C1631      H1637   1.110       .  S
C1634      H1638   1.108       .  S
C1634      H1639   1.110       .  S
C1634      H1640   1.111       .  S
C1641      C1642   1.403       .  A
C1641      C1646   1.389       .  A
C1641      H1648   1.084       .  S
C1642      C1643   1.421       .  A
C1643      C1644   1.397       .  A
C1643      C1650   1.508       .  S
C1644      C1645   1.392       .  A
C1644      H1649   1.085       .  S
C1645      C1646   1.406       .  A
C1646      C1647   1.510       .  S
C1647      H1651   1.111       .  S
C1647      H1652   1.111       .  S
C1647      H1653   1.110       .  S
C1650      H1654   1.109       .  S
C1650      H1655   1.110       .  S
C1650      H1656   1.111       .  S
C1657      C1658   1.410       .  A
C1657      C1662   1.406       .  A
C1657      H1664   1.084       .  S
C1658      C1659   1.417       .  A
C1659      C1660   1.407       .  A
C1659      C1666   1.508       .  S
C1660      C1661   1.411       .  A
C1660      H1665   1.083       .  S
C1661      C1662   1.417       .  A
C1662      C1663   1.508       .  S
C1663      H1667   1.111       .  S
C1663      H1668   1.110       .  S
C1663      H1669   1.109       .  S
C1666      H1670   1.109       .  S
C1666      H1671   1.110       .  S
C1666      H1672   1.111       .  S
C1673      C1674   1.412       .  A
C1673      C1678   1.405       .  A
C1673      H1680   1.084       .  S
C1674      C1675   1.419       .  A
C1675      C1676   1.403       .  A
C1675      C1682   1.509       .  S
C1676      C1677   1.405       .  A
C1676      H1681   1.085       .  S
C1677      C1678   1.411       .  A
C1678      C1679   1.508       .  S
C1679      H1683   1.111       .  S
C1679      H1684   1.110       .  S
C1679      H1685   1.111       .  S
C1682      H1686   1.110       .  S
C1682      H1687   1.111       .  S
C1682      H1688   1.111       .  S
C1689      C1690   1.414       .  A
C1689      C1694   1.409       .  A
C1689      H1696   1.084       .  S
C1690      C1691   1.419       .  A
C1691      C1692   1.409       .  A
C1691      C1698   1.508       .  S
C1692      C1693   1.408       .  A
C1692      H1697   1.084       .  S
C1693      C1694   1.413       .  A
C1694      C1695   1.508       .  S
C1695      H1699   1.111       .  S
C1695      H1700   1.111       .  S
C1695      H1701   1.110       .  S
C1698      H1702   1.110       .  S
C1698      H1703   1.110       .  S
C1698      H1704   1.111       .  S
C1705      C1706   1.404       .  A
C1705      C1710   1.408       .  A
C1705      H1712   1.084       .  S
C1706      C1707   1.419       .  A
C1707      C1708   1.406       .  A
C1707      C1714   1.507       .  S
C1708      C1709   1.403       .  A
C1708      H1713   1.084       .  S
C1709      C1710   1.418       .  A
C1710      C1711   1.508       .  S
C1711      H1715   1.111       .  S
C1711      H1716   1.109       .  S
C1711      H1717   1.111       .  S
C1714      H1718   1.110       .  S
C1714      H1719   1.106       .  S
C1714      H1720   1.111       .  S
C1721      C1722   1.408   1_554  A
C1721      C1726   1.407       .  A
C1721      H1728   1.084       .  S
C1722      C1723   1.415       .  A
C1723      C1724   1.408       .  A
C1723      C1730   1.507       .  S
C1724      C1725   1.411   1_556  A
C1724      H1729   1.084   1_565  S
C1725      C1726   1.421       .  A
C1726      C1727   1.509       .  S
C1727      H1731   1.111       .  S
C1727      H1732   1.110       .  S
C1727      H1733   1.110       .  S
C1730      H1734   1.111       .  S
C1730      H1735   1.110       .  S
C1730      H1736   1.111       .  S
C1737      C1738   1.396       .  A
C1737      C1742   1.401       .  A
C1737      H1744   1.085       .  S
C1738      C1739   1.420       .  A
C1739      C1740   1.413       .  A
C1739      C1746   1.508       .  S
C1740      C1741   1.405       .  A
C1740      H1745   1.084       .  S
C1741      C1742   1.425       .  A
C1742      C1743   1.512       .  S
C1743      H1747   1.111       .  S
C1743      H1748   1.111       .  S
C1743      H1749   1.109       .  S
C1746      H1750   1.109   1_556  S
C1746      H1751   1.110       .  S
C1746      H1752   1.111       .  S
C1753      C1754   1.404       .  A
C1753      C1758   1.396       .  A
C1753      H1760   1.085       .  S
C1754      C1755   1.411       .  A
C1755      C1756   1.398       .  A
C1755      C1762   1.508       .  S
C1756      C1757   1.401       .  A
C1756      H1761   1.085       .  S
C1757      C1758   1.407       .  A
C1758      C1759   1.508       .  S
C1759      H1763   1.111       .  S
C1759      H1764   1.110       .  S
C1759      H1765   1.109       .  S
C1762      H1766   1.110       .  S
C1762      H1767   1.109       .  S
C1762      H1768   1.111       .  S
C1769      C1770   1.406       .  A
C1769      C1774   1.406       .  A
C1769      H1776   1.084       .  S
C1770      C1771   1.420       .  A
C1771      C1772   1.410       .  A
C1771      C1778   1.508       .  S
C1772      C1773   1.406       .  A
C1772      H1777   1.084       .  S
C1773      C1774   1.417       .  A
C1774      C1775   1.508       .  S
C1775      H1779   1.111       .  S
C1775      H1780   1.111       .  S
C1775      H1781   1.108       .  S
C1778      H1782   1.110       .  S
C1778      H1783   1.110       .  S
C1778      H1784   1.111       .  S
C1785      C1786   1.399       .  A
C1785      C1790   1.407       .  A
C1785      H1792   1.084       .  S
C1786      C1787   1.420       .  A
C1787      C1788   1.406       .  A
C1787      C1794   1.510       .  S
C1788      C1789   1.405       .  A
C1788      H1793   1.084       .  S
C1789      C1790   1.430       .  A
C1790      C1791   1.510       .  S
C1791      H1795   1.111       .  S
C1791      H1796   1.110       .  S
C1791      H1797   1.110       .  S
C1794      H1798   1.109       .  S
C1794      H1799   1.111       .  S
C1794      H1800   1.111       .  S
C1801      C1802   1.405       .  A
C1801      C1806   1.406       .  A
C1801      H1808   1.084       .  S
C1802      C1803   1.424       .  A
C1803      C1804   1.407       .  A
C1803      C1810   1.509       .  S
C1804      C1805   1.402       .  A
C1804      H1809   1.084       .  S
C1805      C1806   1.419       .  A
C1806      C1807   1.509       .  S
C1807      H1811   1.111       .  S
C1807      H1812   1.109       .  S
C1807      H1813   1.111       .  S
C1810      H1814   1.109       .  S
C1810      H1815   1.111       .  S
C1810      H1816   1.111       .  S
C1817      C1818   1.417       .  A
C1817      C1822   1.408       .  A
C1817      H1824   1.083       .  S
C1818      C1819   1.416       .  A
C1819      C1820   1.407       .  A
C1819      C1826   1.509       .  S
C1820      C1821   1.413       .  A
C1820      H1825   1.084       .  S
C1821      C1822   1.413       .  A
C1822      C1823   1.508       .  S
C1823      H1827   1.111       .  S
C1823      H1828   1.110       .  S
C1823      H1829   1.110       .  S
C1826      H1830   1.110       .  S
C1826      H1831   1.110       .  S
C1826      H1832   1.111       .  S
C1833      C1834   1.410       .  A
C1833      C1838   1.404       .  A
C1833      H1840   1.084       .  S
C1834      C1835   1.416       .  A
C1835      C1836   1.403       .  A
C1835      C1842   1.509       .  S
C1836      C1837   1.410       .  A
C1836      H1841   1.084       .  S
C1837      C1838   1.416       .  A
C1838      C1839   1.508       .  S
C1839      H1843   1.111       .  S
C1839      H1844   1.110   1_554  S
C1839      H1845   1.109   1_554  S
C1842      H1846   1.109       .  S
C1842      H1847   1.110       .  S
C1842      H1848   1.111       .  S
C1849      C1850   1.413       .  A
C1849      C1854   1.407       .  A
C1849      H1856   1.083       .  S
C1850      C1851   1.420       .  A
C1851      C1852   1.406       .  A
C1851      C1858   1.508       .  S
C1852      C1853   1.406       .  A
C1852      H1857   1.085       .  S
C1853      C1854   1.411       .  A
C1854      C1855   1.508       .  S
C1855      H1859   1.111       .  S
C1855      H1860   1.110       .  S
C1855      H1861   1.111       .  S
C1858      H1862   1.110       .  S
C1858      H1863   1.111       .  S
C1858      H1864   1.111       .  S
C1865      C1866   1.393       .  A
C1865      C1870   1.399       .  A
C1865      H1872   1.084       .  S
C1866      C1867   1.406       .  A
C1867      C1868   1.390       .  A
C1867      C1874   1.509       .  S
C1868      C1869   1.404       .  A
C1868      H1873   1.084       .  S
C1869      C1870   1.423       .  A
C1870      C1871   1.509       .  S
C1871      H1875   1.111       .  S
C1871      H1876   1.109       .  S
C1871      H1877   1.111       .  S
C1874      H1878   1.110       .  S
C1874      H1879   1.110       .  S
C1874      H1880   1.111       .  S
C1881      C1882   1.414       .  A
C1881      C1886   1.406       .  A
C1881      H1888   1.083       .  S
C1882      C1883   1.416       .  A
C1883      C1884   1.406       .  A
C1883      C1890   1.509       .  S
C1884      C1885   1.413       .  A
C1884      H1889   1.083       .  S
C1885      C1886   1.415       .  A
C1886      C1887   1.509       .  S
C1887      H1891   1.111       .  S
C1887      H1892   1.110       .  S
C1887      H1893   1.110       .  S
C1890      H1894   1.109       .  S
C1890      H1895   1.110       .  S
C1890      H1896   1.111       .  S
C1897      C1898   1.403       .  A
C1897      C1902   1.407       .  A
C1897      H1904   1.084       .  S
C1898      C1899   1.424       .  A
C1899      C1900   1.410       .  A
C1899      C1906   1.508       .  S
C1900      C1901   1.402       .  A
C1900      H1905   1.084       .  S
C1901      C1902   1.425       .  A
C1902      C1903   1.511       .  S
C1903      H1907   1.111       .  S
C1903      H1908   1.111       .  S
C1903      H1909   1.109       .  S
C1906      H1910   1.111       .  S
C1906      H1911   1.109       .  S
C1906      H1912   1.111       .  S
C1913      C1914   1.414       .  A
C1913      C1918   1.412       .  A
C1913      H1920   1.084       .  S
C1914      C1915   1.419       .  A
C1915      C1916   1.405       .  A
C1915      C1922   1.509       .  S
C1916      C1917   1.408       .  A
C1916      H1921   1.084       .  S
C1917      C1918   1.412       .  A
C1918      C1919   1.506       .  S
C1919      H1923   1.111       .  S
C1919      H1924   1.111       .  S
C1919      H1925   1.110       .  S
C1922      H1926   1.111       .  S
C1922      H1927   1.110       .  S
C1922      H1928   1.111       .  S
C1929      C1930   1.396       .  A
C1929      C1934   1.397       .  A
C1929      H1936   1.085       .  S
C1930      C1931   1.412   1_655  A
C1931      C1932   1.395       .  A
C1931      C1938   1.508       .  S
C1932      C1933   1.398       .  A
C1932      H1937   1.084       .  S
C1933      C1934   1.417   1_455  A
C1934      C1935   1.507       .  S
C1935      H1939   1.111       .  S
C1935      H1940   1.110       .  S
C1935      H1941   1.109       .  S
C1938      H1942   1.108       .  S
C1938      H1943   1.110       .  S
C1938      H1944   1.111       .  S
C1945      C1946   1.414       .  A
C1945      C1950   1.406       .  A
C1945      H1952   1.084       .  S
C1946      C1947   1.418   1_554  A
C1947      C1948   1.406       .  A
C1947      C1954   1.508       .  S
C1948      C1949   1.407   1_556  A
C1948      H1953   1.084       .  S
C1949      C1950   1.411       .  A
C1950      C1951   1.508       .  S
C1951      H1955   1.109       .  S
C1951      H1956   1.111       .  S
C1951      H1957   1.111       .  S
C1954      H1958   1.110       .  S
C1954      H1959   1.110       .  S
C1954      H1960   1.111       .  S
C1961      C1962   1.406   1_554  A
C1961      C1966   1.404       .  A
C1961      H1968   1.084       .  S
C1962      C1963   1.412       .  A
C1963      C1964   1.407       .  A
C1963      C1970   1.508       .  S
C1964      C1965   1.413       .  A
C1964      H1969   1.084       .  S
C1965      C1966   1.419   1_556  A
C1966      C1967   1.509       .  S
C1967      H1971   1.111       .  S
C1967      H1972   1.111       .  S
C1967      H1973   1.110       .  S
C1970      H1974   1.111       .  S
C1970      H1975   1.110       .  S
C1970      H1976   1.111       .  S
C1977      C1978   1.408       .  A
C1977      C1982   1.410       .  A
C1977      H1984   1.084       .  S
C1978      C1979   1.419       .  A
C1979      C1980   1.407       .  A
C1979      C1986   1.509       .  S
C1980      C1981   1.407       .  A
C1980      H1985   1.084       .  S
C1981      C1982   1.420       .  A
C1982      C1983   1.508       .  S
C1983      H1987   1.111       .  S
C1983      H1988   1.109       .  S
C1983      H1989   1.110       .  S
C1986      H1990   1.111       .  S
C1986      H1991   1.110       .  S
C1986      H1992   1.111       .  S
C1993      C1994   1.411       .  A
C1993      C1998   1.412       .  A
C1993      H2000   1.084       .  S
C1994      C1995   1.413       .  A
C1995      C1996   1.405       .  A
C1995      C2002   1.509       .  S
C1996      C1997   1.415       .  A
C1996      H2001   1.083       .  S
C1997      C1998   1.418       .  A
C1998      C1999   1.508       .  S
C1999      H2003   1.111       .  S
C1999      H2004   1.110       .  S
C1999      H2005   1.111       .  S
C2002      H2006   1.111       .  S
C2002      H2007   1.109       .  S
C2002      H2008   1.111   1_554  S
C2009      C2010   1.401       .  A
C2009      C2014   1.400       .  A
C2009      H2016   1.084       .  S
C2010      C2011   1.424       .  A
C2011      C2012   1.406       .  A
C2011      C2018   1.510       .  S
C2012      C2013   1.403       .  A
C2012      H2017   1.084       .  S
C2013      C2014   1.423       .  A
C2014      C2015   1.510       .  S
C2015      H2019   1.111       .  S
C2015      H2020   1.110       .  S
C2015      H2021   1.109       .  S
C2018      H2022   1.110       .  S
C2018      H2023   1.109       .  S
C2018      H2024   1.111       .  S
C2025      C2026   1.408       .  A
C2025      C2030   1.403       .  A
C2025      H2032   1.084       .  S
C2026      C2027   1.413       .  A
C2027      C2028   1.407       .  A
C2027      C2034   1.507       .  S
C2028      C2029   1.411       .  A
C2028      H2033   1.084       .  S
C2029      C2030   1.417       .  A
C2030      C2031   1.508       .  S
C2031      H2035   1.111       .  S
C2031      H2036   1.110       .  S
C2031      H2037   1.110       .  S
C2034      H2038   1.110       .  S
C2034      H2039   1.110       .  S
C2034      H2040   1.111       .  S
C2041      C2042   1.403       .  A
C2041      C2046   1.405       .  A
C2041      H2048   1.083       .  S
C2042      C2043   1.417       .  A
C2043      C2044   1.408       .  A
C2043      C2050   1.507       .  S
C2044      C2045   1.406       .  A
C2044      H2049   1.084       .  S
C2045      C2046   1.419       .  A
C2046      C2047   1.509       .  S
C2047      H2051   1.111       .  S
C2047      H2052   1.111       .  S
C2047      H2053   1.109       .  S
C2050      H2054   1.108       .  S
C2050      H2055   1.111       .  S
C2050      H2056   1.111       .  S
C2057      C2058   1.404       .  A
C2057      C2062   1.397       .  A
C2057      H2064   1.084       .  S
C2058      C2059   1.410       .  A
C2059      C2060   1.396       .  A
C2059      C2066   1.508       .  S
C2060      C2061   1.401       .  A
C2060      H2065   1.085       .  S
C2061      C2062   1.407       .  A
C2062      C2063   1.507       .  S
C2063      H2067   1.111       .  S
C2063      H2068   1.109       .  S
C2063      H2069   1.111       .  S
C2066      H2070   1.109       .  S
C2066      H2071   1.111       .  S
C2066      H2072   1.111       .  S
C2073      C2074   1.408   1_655  A
C2073      C2078   1.407       .  A
C2073      H2080   1.084       .  S
C2074      C2075   1.430       .  A
C2075      C2076   1.405       .  A
C2075      C2082   1.510       .  S
C2076      C2077   1.397   1_455  A
C2076      H2081   1.085       .  S
C2077      C2078   1.418       .  A
C2078      C2079   1.510       .  S
C2079      H2083   1.111       .  S
C2079      H2084   1.111       .  S
C2079      H2085   1.109       .  S
C2082      H2086   1.109       .  S
C2082      H2087   1.110       .  S
C2082      H2088   1.111       .  S
C2089      C2090   1.404       .  A
C2089      C2094   1.411       .  A
C2089      H2096   1.084       .  S
C2090      C2091   1.425       .  A
C2091      C2092   1.406       .  A
C2091      C2098   1.511       .  S
C2092      C2093   1.403       .  A
C2092      H2097   1.084       .  S
C2093      C2094   1.422       .  A
C2094      C2095   1.508   1_565  S
C2095      H2099   1.111       .  S
C2095      H2100   1.109       .  S
C2095      H2101   1.110       .  S
C2098      H2102   1.109       .  S
C2098      H2103   1.110       .  S
C2098      H2104   1.111       .  S
C2105      C2106   1.404       .  A
C2105      C2110   1.404       .  A
C2105      H2112   1.084       .  S
C2106      C2107   1.426       .  A
C2107      C2108   1.408       .  A
C2107      C2114   1.509   1_655  S
C2108      C2109   1.400       .  A
C2108      H2113   1.084       .  S
C2109      C2110   1.420       .  A
C2110      C2111   1.511       .  S
C2111      H2115   1.111       .  S
C2111      H2116   1.111       .  S
C2111      H2117   1.109       .  S
C2114      H2118   1.111       .  S
C2114      H2119   1.109       .  S
C2114      H2120   1.111   1_455  S
C2121      C2122   1.408       .  A
C2121      C2126   1.407       .  A
C2121      H2128   1.083       .  S
C2122      C2123   1.424       .  A
C2123      C2124   1.412       .  A
C2123      C2130   1.509       .  S
C2124      C2125   1.410       .  A
C2124      H2129   1.084       .  S
C2125      C2126   1.423       .  A
C2126      C2127   1.509       .  S
C2127      H2131   1.111       .  S
C2127      H2132   1.110       .  S
C2127      H2133   1.110       .  S
C2130      H2134   1.110       .  S
C2130      H2135   1.110       .  S
C2130      H2136   1.111       .  S
C2137      C2138   1.413       .  A
C2137      C2142   1.410       .  A
C2137      H2144   1.084       .  S
C2138      C2139   1.413       .  A
C2139      C2140   1.406       .  A
C2139      C2146   1.509       .  S
C2140      C2141   1.415       .  A
C2140      H2145   1.083       .  S
C2141      C2142   1.418       .  A
C2142      C2143   1.509       .  S
C2143      H2147   1.111       .  S
C2143      H2148   1.110       .  S
C2143      H2149   1.111       .  S
C2146      H2150   1.110   1_655  S
C2146      H2151   1.110       .  S
C2146      H2152   1.111       .  S
C2153      C2154   1.408       .  A
C2153      C2158   1.408       .  A
C2153      H2160   1.084       .  S
C2154      C2155   1.411       .  A
C2155      C2156   1.408       .  A
C2155      C2162   1.507       .  S
C2156      C2157   1.414       .  A
C2156      H2161   1.083       .  S
C2157      C2158   1.420       .  A
C2158      C2159   1.509       .  S
C2159      H2163   1.111       .  S
C2159      H2164   1.110   1_556  S
C2159      H2165   1.109   1_556  S
C2162      H2166   1.111       .  S
C2162      H2167   1.109       .  S
C2162      H2168   1.111       .  S
C2169      C2170   1.404       .  A
C2169      C2174   1.411       .  A
C2169      H2176   1.084       .  S
C2170      C2171   1.421       .  A
C2171      C2172   1.404       .  A
C2171      C2178   1.510       .  S
C2172      C2173   1.403       .  A
C2172      H2177   1.084       .  S
C2173      C2174   1.425       .  A
C2174      C2175   1.509       .  S
C2175      H2179   1.111       .  S
C2175      H2180   1.109       .  S
C2175      H2181   1.111       .  S
C2178      H2182   1.109       .  S
C2178      H2183   1.110       .  S
C2178      H2184   1.111       .  S
C2185      C2186   1.401       .  A
C2185      C2190   1.408   1_455  A
C2185      H2192   1.084       .  S
C2186      C2187   1.429       .  A
C2187      C2188   1.410   1_455  A
C2187      C2194   1.511       .  S
C2188      C2189   1.404       .  A
C2188      H2193   1.084       .  S
C2189      C2190   1.431       .  A
C2190      C2191   1.511       .  S
C2191      H2195   1.111       .  S
C2191      H2196   1.110       .  S
C2191      H2197   1.110       .  S
C2194      H2198   1.110       .  S
C2194      H2199   1.109       .  S
C2194      H2200   1.111   1_455  S
C2201      C2202   1.400       .  A
C2201      C2206   1.397       .  A
C2201      H2208   1.084       .  S
C2202      C2203   1.414       .  A
C2203      C2204   1.399       .  A
C2203      C2210   1.508       .  S
C2204      C2205   1.399       .  A
C2204      H2209   1.085       .  S
C2205      C2206   1.413       .  A
C2206      C2207   1.509       .  S
C2207      H2211   1.111       .  S
C2207      H2212   1.110       .  S
C2207      H2213   1.110       .  S
C2210      H2214   1.110       .  S
C2210      H2215   1.110       .  S
C2210      H2216   1.111       .  S
C2217      C2218   1.407       .  A
C2217      C2222   1.407       .  A
C2217      H2224   1.083       .  S
C2218      C2219   1.420       .  A
C2219      C2220   1.408       .  A
C2219      C2226   1.509       .  S
C2220      C2221   1.408       .  A
C2220      H2225   1.083       .  S
C2221      C2222   1.419       .  A
C2222      C2223   1.508       .  S
C2223      H2227   1.111       .  S
C2223      H2228   1.110       .  S
C2223      H2229   1.109       .  S
C2226      H2230   1.110       .  S
C2226      H2231   1.110       .  S
C2226      H2232   1.111       .  S
C2233      C2234   1.402       .  A
C2233      C2238   1.410       .  A
C2233      H2240   1.084       .  S
C2234      C2235   1.422       .  A
C2235      C2236   1.408       .  A
C2235      C2242   1.509       .  S
C2236      C2237   1.404       .  A
C2236      H2241   1.084       .  S
C2237      C2238   1.427       .  A
C2238      C2239   1.510       .  S
C2239      H2243   1.111       .  S
C2239      H2244   1.111       .  S
C2239      H2245   1.109       .  S
C2242      H2246   1.111       .  S
C2242      H2247   1.108       .  S
C2242      H2248   1.111       .  S
C2249      C2250   1.402       .  A
C2249      C2254   1.407       .  A
C2249      H2256   1.084       .  S
C2250      C2251   1.422       .  A
C2251      C2252   1.407       .  A
C2251      C2258   1.510       .  S
C2252      C2253   1.406       .  A
C2252      H2257   1.084       .  S
C2253      C2254   1.424       .  A
C2254      C2255   1.509       .  S
C2255      H2259   1.111       .  S
C2255      H2260   1.109       .  S
C2255      H2261   1.110       .  S
C2258      H2262   1.109       .  S
C2258      H2263   1.110       .  S
C2258      H2264   1.111       .  S
C2265      C2266   1.406       .  A
C2265      C2270   1.406       .  A
C2265      H2272   1.084       .  S
C2266      C2267   1.421       .  A
C2267      C2268   1.409       .  A
C2267      C2274   1.508       .  S
C2268      C2269   1.407       .  A
C2268      H2273   1.084       .  S
C2269      C2270   1.420       .  A
C2270      C2271   1.509       .  S
C2271      H2275   1.111       .  S
C2271      H2276   1.111       .  S
C2271      H2277   1.109       .  S
C2274      H2278   1.109       .  S
C2274      H2279   1.111       .  S
C2274      H2280   1.111       .  S
C2281      C2282   1.408   1_554  A
C2281      C2286   1.407       .  A
C2281      H2288   1.084       .  S
C2282      C2283   1.418       .  A
C2283      C2284   1.411       .  A
C2283      C2290   1.508       .  S
C2284      C2285   1.411   1_556  A
C2284      H2289   1.084       .  S
C2285      C2286   1.420       .  A
C2286      C2287   1.509       .  S
C2287      H2291   1.111       .  S
C2287      H2292   1.110       .  S
C2287      H2293   1.110       .  S
C2290      H2294   1.110       .  S
C2290      H2295   1.110       .  S
C2290      H2296   1.111       .  S
C2297      C2298   1.402       .  A
C2297      C2302   1.407       .  A
C2297      H2304   1.084       .  S
C2298      C2299   1.424   1_554  A
C2299      C2300   1.406       .  A
C2299      C2306   1.511       .  S
C2300      C2301   1.403   1_556  A
C2300      H2305   1.084       .  S
C2301      C2302   1.421       .  A
C2302      C2303   1.509       .  S
C2303      H2307   1.111       .  S
C2303      H2308   1.109   1_655  S
C2303      H2309   1.110   1_655  S
C2306      H2310   1.109       .  S
C2306      H2311   1.110       .  S
C2306      H2312   1.111       .  S
C2313      C2314   1.402       .  A
C2313      C2318   1.397       .  A
C2313      H2320   1.085       .  S
C2314      C2315   1.410       .  A
C2315      C2316   1.398       .  A
C2315      C2322   1.508       .  S
C2316      C2317   1.403       .  A
C2316      H2321   1.084       .  S
C2317      C2318   1.408       .  A
C2318      C2319   1.508       .  S
C2319      H2323   1.111       .  S
C2319      H2324   1.110       .  S
C2319      H2325   1.109       .  S
C2322      H2326   1.111       .  S
C2322      H2327   1.109       .  S
C2322      H2328   1.111       .  S
C2329      C2330   1.408       .  A
C2329      C2334   1.408       .  A
C2329      H2336   1.083       .  S
C2330      C2331   1.423       .  A
C2331      C2332   1.408       .  A
C2331      C2338   1.510       .  S
C2332      C2333   1.409       .  A
C2332      H2337   1.083       .  S
C2333      C2334   1.423       .  A
C2334      C2335   1.508       .  S
C2335      H2339   1.111       .  S
C2335      H2340   1.110       .  S
C2335      H2341   1.108       .  S
C2338      H2342   1.110       .  S
C2338      H2343   1.111       .  S
C2338      H2344   1.111       .  S
C2345      C2346   1.401       .  A
C2345      C2350   1.404       .  A
C2345      H2352   1.084       .  S
C2346      C2347   1.421       .  A
C2347      C2348   1.404       .  A
C2347      C2354   1.511       .  S
C2348      C2349   1.405       .  A
C2348      H2353   1.084       .  S
C2349      C2350   1.425       .  A
C2350      C2351   1.510       .  S
C2351      H2355   1.111       .  S
C2351      H2356   1.110       .  S
C2351      H2357   1.110       .  S
C2354      H2358   1.109       .  S
C2354      H2359   1.110       .  S
C2354      H2360   1.111       .  S
C2361      C2362   1.407       .  A
C2361      C2366   1.409       .  A
C2361      H2368   1.084       .  S
C2362      C2363   1.413       .  A
C2363      C2364   1.404       .  A
C2363      C2370   1.510       .  S
C2364      C2365   1.414       .  A
C2364      H2369   1.084       .  S
C2365      C2366   1.421       .  A
C2366      C2367   1.508       .  S
C2367      H2371   1.111       .  S
C2367      H2372   1.110       .  S
C2367      H2373   1.110       .  S
C2370      H2374   1.111       .  S
C2370      H2375   1.104       .  S
C2370      H2376   1.110       .  S
C2377      C2378   1.410       .  A
C2377      C2382   1.409       .  A
C2377      H2384   1.084       .  S
C2378      C2379   1.416       .  A
C2379      C2380   1.407       .  A
C2379      C2386   1.509       .  S
C2380      C2381   1.411       .  A
C2380      H2385   1.084       .  S
C2381      C2382   1.416       .  A
C2382      C2383   1.507       .  S
C2383      H2387   1.111       .  S
C2383      H2388   1.110       .  S
C2383      H2389   1.110       .  S
C2386      H2390   1.110       .  S
C2386      H2391   1.111       .  S
C2386      H2392   1.111       .  S
C2393      C2394   1.403       .  A
C2393      C2398   1.406   1_455  A
C2393      H2400   1.084       .  S
C2394      C2395   1.415       .  A
C2395      C2396   1.408   1_455  A
C2395      C2402   1.507       .  S
C2396      C2397   1.405       .  A
C2396      H2401   1.083       .  S
C2397      C2398   1.415       .  A
C2398      C2399   1.507       .  S
C2399      H2403   1.111       .  S
C2399      H2404   1.107       .  S
C2399      H2405   1.111       .  S
C2402      H2406   1.111       .  S
C2402      H2407   1.107       .  S
C2402      H2408   1.111   1_455  S
C2409      C2410   1.412       .  A
C2409      C2414   1.406       .  A
C2409      H2416   1.084       .  S
C2410      C2411   1.418       .  A
C2411      C2412   1.411       .  A
C2411      C2418   1.506       .  S
C2412      C2413   1.410       .  A
C2412      H2417   1.084       .  S
C2413      C2414   1.416       .  A
C2414      C2415   1.510       .  S
C2415      H2419   1.111       .  S
C2415      H2420   1.111       .  S
C2415      H2421   1.110       .  S
C2418      H2422   1.110       .  S
C2418      H2423   1.110       .  S
C2418      H2424   1.111       .  S
C2425      C2426   1.407       .  A
C2425      C2430   1.407       .  A
C2425      H2432   1.084       .  S
C2426      C2427   1.413       .  A
C2427      C2428   1.409       .  A
C2427      C2434   1.507       .  S
C2428      C2429   1.414       .  A
C2428      H2433   1.084       .  S
C2429      C2430   1.420       .  A
C2430      C2431   1.508       .  S
C2431      H2435   1.111       .  S
C2431      H2436   1.110       .  S
C2431      H2437   1.110       .  S
C2434      H2438   1.110       .  S
C2434      H2439   1.110       .  S
C2434      H2440   1.111       .  S
C2441      C2442   1.418       .  A
C2441      C2446   1.407       .  A
C2441      H2448   1.083       .  S
C2442      C2443   1.417       .  A
C2443      C2444   1.410       .  A
C2443      C2450   1.507       .  S
C2444      C2445   1.413       .  A
C2444      H2449   1.084       .  S
C2445      C2446   1.412       .  A
C2446      C2447   1.508       .  S
C2447      H2451   1.111       .  S
C2447      H2452   1.110       .  S
C2447      H2453   1.110   1_655  S
C2450      H2454   1.110       .  S
C2450      H2455   1.110       .  S
C2450      H2456   1.111   1_556  S
C2457      C2458   1.400       .  A
C2457      C2462   1.395       .  A
C2457      H2464   1.084       .  S
C2458      C2459   1.417   1_655  A
C2459      C2460   1.399       .  A
C2459      C2466   1.507       .  S
C2460      C2461   1.396       .  A
C2460      H2465   1.084       .  S
C2461      C2462   1.411   1_455  A
C2462      C2463   1.509       .  S
C2463      H2467   1.111       .  S
C2463      H2468   1.110       .  S
C2463      H2469   1.108       .  S
C2466      H2470   1.110       .  S
C2466      H2471   1.110       .  S
C2466      H2472   1.111       .  S
C2473      C2474   1.405   1_554  A
C2473      C2478   1.408       .  A
C2473      H2480   1.084       .  S
C2474      C2475   1.419       .  A
C2475      C2476   1.409   1_656  A
C2475      C2482   1.508   1_655  S
C2476      C2477   1.406       .  A
C2476      H2481   1.084       .  S
C2477      C2478   1.419   1_455  A
C2478      C2479   1.507       .  S
C2479      H2483   1.111       .  S
C2479      H2484   1.110   1_655  S
C2479      H2485   1.107       .  S
C2482      H2486   1.107   1_455  S
C2482      H2487   1.111   1_455  S
C2482      H2488   1.111       .  S
C2489      C2490   1.400   1_455  A
C2489      C2494   1.404       .  A
C2489      H2496   1.084       .  S
C2490      C2491   1.422       .  A
C2491      C2492   1.402       .  A
C2491      C2498   1.511       .  S
C2492      C2493   1.403   1_655  A
C2492      H2497   1.084       .  S
C2493      C2494   1.427       .  A
C2494      C2495   1.510       .  S
C2495      H2499   1.111       .  S
C2495      H2500   1.110       .  S
C2495      H2501   1.110       .  S
C2498      H2502   1.109       .  S
C2498      H2503   1.110       .  S
C2498      H2504   1.111       .  S
C2505      C2506   1.406       .  A
C2505      C2510   1.402       .  A
C2505      H2512   1.085       .  S
C2506      C2507   1.409       .  A
C2507      C2508   1.406       .  A
C2507      C2514   1.507       .  S
C2508      C2509   1.414       .  A
C2508      H2513   1.084       .  S
C2509      C2510   1.418       .  A
C2510      C2511   1.509       .  S
C2511      H2515   1.111       .  S
C2511      H2516   1.110       .  S
C2511      H2517   1.110       .  S
C2514      H2518   1.110       .  S
C2514      H2519   1.110       .  S
C2514      H2520   1.111       .  S
C2521      C2522   1.413       .  A
C2521      C2526   1.406       .  A
C2521      H2528   1.083   1_455  S
C2522      C2523   1.420       .  A
C2523      C2524   1.408       .  A
C2523      C2530   1.509       .  S
C2524      C2525   1.408       .  A
C2524      H2529   1.084       .  S
C2525      C2526   1.411       .  A
C2526      C2527   1.507       .  S
C2527      H2531   1.110       .  S
C2527      H2532   1.111       .  S
C2527      H2533   1.111       .  S
C2530      H2534   1.110       .  S
C2530      H2535   1.110       .  S
C2530      H2536   1.111       .  S
C2537      C2538   1.408       .  A
C2537      C2542   1.409       .  A
C2537      H2544   1.084       .  S
C2538      C2539   1.423       .  A
C2539      C2540   1.407       .  A
C2539      C2546   1.509       .  S
C2540      C2541   1.407       .  A
C2540      H2545   1.083       .  S
C2541      C2542   1.423       .  A
C2542      C2543   1.510       .  S
C2543      H2547   1.111       .  S
C2543      H2548   1.110       .  S
C2543      H2549   1.110       .  S
C2546      H2550   1.110       .  S
C2546      H2551   1.110       .  S
C2546      H2552   1.111       .  S
C2553      C2554   1.411       .  A
C2553      C2558   1.406       .  A
C2553      H2560   1.083       .  S
C2554      C2555   1.414       .  A
C2555      C2556   1.407       .  A
C2555      C2562   1.509       .  S
C2556      C2557   1.416       .  A
C2556      H2561   1.083       .  S
C2557      C2558   1.417       .  A
C2558      C2559   1.509       .  S
C2559      H2563   1.111       .  S
C2559      H2564   1.110       .  S
C2559      H2565   1.110   1_455  S
C2562      H2566   1.110       .  S
C2562      H2567   1.110       .  S
C2562      H2568   1.111       .  S
C2569      C2570   1.413       .  A
C2569      C2574   1.406       .  A
C2569      H2576   1.083       .  S
C2570      C2571   1.417       .  A
C2571      C2572   1.410       .  A
C2571      C2578   1.508       .  S
C2572      C2573   1.412       .  A
C2572      H2577   1.084       .  S
C2573      C2574   1.415       .  A
C2574      C2575   1.508       .  S
C2575      H2579   1.111       .  S
C2575      H2580   1.109   1_554  S
C2575      H2581   1.110   1_554  S
C2578      H2582   1.108       .  S
C2578      H2583   1.110       .  S
C2578      H2584   1.111       .  S
C2585      C2586   1.407       .  A
C2585      C2590   1.408       .  A
C2585      H2592   1.084       .  S
C2586      C2587   1.413       .  A
C2587      C2588   1.408       .  A
C2587      C2594   1.507       .  S
C2588      C2589   1.412       .  A
C2588      H2593   1.084       .  S
C2589      C2590   1.420       .  A
C2590      C2591   1.509       .  S
C2591      H2595   1.111       .  S
C2591      H2596   1.110       .  S
C2591      H2597   1.110       .  S
C2594      H2598   1.110       .  S
C2594      H2599   1.110       .  S
C2594      H2600   1.111       .  S
C2601      C2602   1.415       .  A
C2601      C2606   1.411       .  A
C2601      H2608   1.083       .  S
C2602      C2603   1.421       .  A
C2603      C2604   1.404       .  A
C2603      C2610   1.509       .  S
C2604      C2605   1.406       .  A
C2604      H2609   1.084       .  S
C2605      C2606   1.412       .  A
C2606      C2607   1.507       .  S
C2607      H2611   1.111       .  S
C2607      H2612   1.110       .  S
C2607      H2613   1.111       .  S
C2610      H2614   1.110       .  S
C2610      H2615   1.110       .  S
C2610      H2616   1.111       .  S
C2617      C2618   1.397       .  A
C2617      C2622   1.398       .  A
C2617      H2624   1.084       .  S
C2618      C2619   1.412       .  A
C2619      C2620   1.397       .  A
C2619      C2626   1.509       .  S
C2620      C2621   1.401       .  A
C2620      H2625   1.085       .  S
C2621      C2622   1.416       .  A
C2622      C2623   1.509       .  S
C2623      H2627   1.111       .  S
C2623      H2628   1.110       .  S
C2623      H2629   1.110       .  S
C2626      H2630   1.110       .  S
C2626      H2631   1.110       .  S
C2626      H2632   1.111       .  S
C2633      C2634   1.416       .  A
C2633      C2638   1.410   1_655  A
C2633      H2640   1.083       .  S
C2634      C2635   1.416       .  A
C2635      C2636   1.408   1_655  A
C2635      C2642   1.508       .  S
C2636      C2637   1.414       .  A
C2636      H2641   1.083       .  S
C2637      C2638   1.416       .  A
C2638      C2639   1.509       .  S
C2639      H2643   1.111       .  S
C2639      H2644   1.110       .  S
C2639      H2645   1.110       .  S
C2642      H2646   1.108       .  S
C2642      H2647   1.110       .  S
C2642      H2648   1.111       .  S
C2649      C2650   1.409       .  A
C2649      C2654   1.408       .  A
C2649      H2656   1.083       .  S
C2650      C2651   1.423       .  A
C2651      C2652   1.408       .  A
C2651      C2658   1.509       .  S
C2652      C2653   1.409       .  A
C2652      H2657   1.083       .  S
C2653      C2654   1.422       .  A
C2654      C2655   1.509       .  S
C2655      H2659   1.111       .  S
C2655      H2660   1.110       .  S
C2655      H2661   1.110       .  S
C2658      H2662   1.110       .  S
C2658      H2663   1.109       .  S
C2658      H2664   1.111       .  S
