geometry optimzed in LAMMPS
_audit_creation_date              2020-12-01 
_audit_creation_method            'lammps2cif' 
_symmetry_space_group_name_H-M    'P1' 
_symmetry_Int_Tables_number       1 
_symmetry_cell_setting            triclinic 
loop_ 
_symmetry_equiv_pos_as_xyz 
  x,y,z 
_cell_length_a                    29.97625751 
_cell_length_b                    29.984736688855293 
_cell_length_c                    93.24018262030582 
_cell_angle_alpha                 90.11173493204039 
_cell_angle_beta                  90.15947743574141 
_cell_angle_gamma                 89.99534748833992 
loop_ 
_atom_site_label 
_atom_site_type_symbol 
_atom_site_fract_x 
_atom_site_fract_y 
_atom_site_fract_z 
_atom_site_charge 
O1          O  0.74162065  0.21916209  0.72914472    -0.80500
C2          C  0.88306511  0.13103664  0.70135821     0.98800
O3          O  0.84209227  0.12299201  0.69923667    -0.69700
O4          O  0.79528436  0.10603047  0.72210256    -0.73200
Al5        Al  0.78845566  0.14843028  0.70720855     1.49000
C6          C  0.78877733  0.11064935  0.73531646     0.94100
O7          O  0.85876854  0.19733161  0.74229039    -0.79500
O8          O  0.83261667  0.27719905  0.70964497    -0.73000
Al9        Al  0.80092717  0.20728913  0.73450889     1.90100
O10         O  0.89576335  0.23238178  0.72554537    -0.72100
O11         O  0.84119089  0.21705000  0.68901921    -0.71900
O12         O  0.89605269  0.16790443  0.70640132    -0.77600
O13         O  0.77671667  0.18367413  0.69064889    -0.75800
O14         O  0.81701718  0.19205031  0.71667947    -1.11900
O15         O  0.72966839  0.16526723  0.71357081    -0.71100
C16         C  0.71555546  0.19641430  0.72150511     0.99600
C17         C  0.89360415  0.21643001  0.73800930     0.96000
Al18       Al  0.86235687  0.22101948  0.70835395     1.55600
O19         O  0.78623435  0.14872291  0.74091470    -0.75800
C20         C  0.80458268  0.20563784  0.68353023     1.00100
C21         C  0.81764946  0.29362979  0.72114942     0.95000
O22         O  0.81134213  0.26974086  0.73208506    -0.81100
O23         O  0.27486639  0.78024412  0.73020274    -0.80500
C24         C  0.13646115  0.86994569  0.70128383     0.98800
O25         O  0.17766559  0.87697217  0.69928794    -0.69700
O26         O  0.22331026  0.89423210  0.72251280    -0.73200
Al27       Al  0.23044062  0.85110552  0.70782598     1.49000
C28         C  0.22931424  0.89001269  0.73577333     0.94100
O29         O  0.15748829  0.80449900  0.74240429    -0.79500
O30         O  0.18434820  0.72377804  0.70994518    -0.73000
Al31       Al  0.21553486  0.79334138  0.73509847     1.90100
O32         O  0.12110403  0.76912456  0.72548306    -0.72100
O33         O  0.17720769  0.78365960  0.68935035    -0.71900
O34         O  0.12255024  0.83366927  0.70644567    -0.77600
O35         O  0.24271266  0.81467610  0.69160288    -0.75800
O36         O  0.20064161  0.80841295  0.71716336    -1.11900
O37         O  0.28849399  0.83370862  0.71472127    -0.71100
C38         C  0.30165837  0.80236218  0.72271895     0.99600
C39         C  0.12279927  0.78540740  0.73792630     0.96000
Al40       Al  0.15528488  0.78009389  0.70853691     1.55600
O41         O  0.23089751  0.85206454  0.74149493    -0.75800
C42         C  0.21472043  0.79338837  0.68426485     1.00100
C43         C  0.19862420  0.70711718  0.72150460     0.95000
O44         O  0.20425224  0.73079269  0.73259024    -0.81100
O45         O  0.24311451  0.28260841  0.77348717    -0.80500
C46         C  0.38185875  0.37200429  0.80285312     0.98800
O47         O  0.34081364  0.38148905  0.80377246    -0.69700
O48         O  0.29881397  0.39646995  0.77978389    -0.73200
Al49       Al  0.28813958  0.35623706  0.79501126     1.49000
C50         C  0.29236927  0.39032004  0.76663091     0.94100
O51         O  0.36212292  0.30299926  0.76202782    -0.79500
O52         O  0.32969962  0.22565454  0.79469193    -0.73000
Al53       Al  0.30318159  0.29380011  0.76881534     1.90100
O54         O  0.39634971  0.26911192  0.77974947    -0.72100
O55         O  0.33481930  0.28716999  0.81500757    -0.71900
O56         O  0.39467192  0.33411897  0.79864724    -0.77600
O57         O  0.27255755  0.32355937  0.81163434    -0.75800
O58         O  0.31699445  0.31073959  0.78671541    -1.11900
O59         O  0.23006813  0.33978259  0.78771006    -0.71100
C60         C  0.21644626  0.30710676  0.78029285     0.99600
C61         C  0.39624829  0.28439736  0.76715331     0.96000
Al62       Al  0.36007041  0.28159143  0.79622531     1.55600
O63         O  0.28919548  0.35162234  0.76154100    -0.75800
C64         C  0.29774001  0.30084017  0.81952070     1.00100
C65         C  0.31687474  0.20840654  0.78302658     0.95000
O66         O  0.31312798  0.23153045  0.77181283    -0.81100
O67         O  0.77633890  0.71761757  0.77400101    -0.80500
C68         C  0.63617514  0.63292956  0.80342709     0.98800
O69         O  0.67719065  0.62424967  0.80521652    -0.69700
O70         O  0.72113240  0.60563388  0.78192163    -0.73200
Al71       Al  0.73050884  0.64830850  0.79657874     1.49000
C72         C  0.72679058  0.60967030  0.76866409     0.94100
O73         O  0.65745942  0.69715637  0.76239371    -0.79500
O74         O  0.68952186  0.77758575  0.79456580    -0.73000
Al75       Al  0.71627532  0.70656159  0.76936856     1.90100
O76         O  0.62340436  0.73436614  0.77936278    -0.72100
O77         O  0.68112028  0.71790524  0.81537688    -0.71900
O78         O  0.62342660  0.66999579  0.79849139    -0.77600
O79         O  0.74488317  0.68378475  0.81281791    -0.75800
O80         O  0.70191060  0.69218112  0.78739039    -1.11900
O81         O  0.78883439  0.66381074  0.78950508    -0.71100
C82         C  0.80270833  0.69462047  0.78142785     0.99600
C83         C  0.62360365  0.71725908  0.76701329     0.96000
Al84       Al  0.65823787  0.72233839  0.79620675     1.55600
O85         O  0.72938239  0.64749965  0.76293652    -0.75800
C86         C  0.71815845  0.70575124  0.82037433     1.00100
C87         C  0.70348152  0.79349337  0.78286722     0.95000
O88         O  0.70721999  0.76940323  0.77180688    -0.81100
O89         O  0.77721200  0.21863307  0.02484958    -0.80500
C90         C  0.63528960  0.12808569  0.05177502     0.98800
O91         O  0.67625549  0.12194599  0.05447121    -0.69700
O92         O  0.72429066  0.10463953  0.03180957    -0.73200
Al93       Al  0.72969246  0.14794504  0.04654446     1.49000
C94         C  0.73202389  0.10890752  0.01864453     0.94100
O95         O  0.66161779  0.19420065  0.01062185    -0.79500
O96         O  0.68206373  0.27489920  0.04344995    -0.73000
Al97       Al  0.71843376  0.20547841  0.01900833     1.90100
O98         O  0.62180815  0.22802492  0.02697564    -0.72100
O99         O  0.67338200  0.21516596  0.06400801    -0.71900
O100        O  0.62159303  0.16383075  0.04616087    -0.77600
O101        O  0.73965947  0.18508664  0.06284887    -0.75800
O102        O  0.70088391  0.19030900  0.03666627    -1.11900
O103        O  0.78864050  0.16486798  0.04039159    -0.71100
C104        C  0.80310425  0.19583382  0.03250356     0.99600
C105        C  0.62571321  0.21202071  0.01455237     0.96000
Al106      Al  0.65385689  0.21800017  0.04447841     1.55600
O107        O  0.73463357  0.14682020  0.01294734    -0.75800
C108        C  0.71041144  0.20627384  0.06968632     1.00100
C109        C  0.69856543  0.29158139  0.03223034     0.95000
O110        O  0.70668629  0.26787342  0.02133528    -0.81100
O111        O  0.24161425  0.77921806  0.02482276    -0.80500
C112        C  0.38351407  0.86553376  0.05324622     0.98800
O113        O  0.34258711  0.87453694  0.05501739    -0.69700
O114        O  0.29568747  0.89198052  0.03205482    -0.73200
Al115      Al  0.28864767  0.84961879  0.04694911     1.49000
C116        C  0.28891814  0.88736171  0.01884417     0.94100
O117        O  0.35950605  0.80007320  0.01221387    -0.79500
O118        O  0.33074384  0.72043174  0.04471561    -0.73000
Al119      Al  0.30116885  0.79062245  0.01969203     1.90100
O120        O  0.39517596  0.76410419  0.02913696    -0.72100
O121        O  0.33993314  0.78004913  0.06540762    -0.71900
O122        O  0.39601874  0.82834212  0.04834939    -0.77600
O123        O  0.27630185  0.81479132  0.06349854    -0.75800
O124        O  0.31690516  0.80566745  0.03760946    -1.11900
O125        O  0.22986112  0.83294249  0.04047417    -0.71100
C126        C  0.21567632  0.80177734  0.03252980     0.99600
C127        C  0.39384533  0.78026251  0.01668392     0.96000
Al128      Al  0.36147484  0.77592204  0.04616891     1.55600
O129        O  0.28685079  0.84927853  0.01323255    -0.75800
C130        C  0.30343188  0.79217626  0.07072514     1.00100
C131        C  0.31615821  0.70414558  0.03312353     0.95000
O132        O  0.31095682  0.72800802  0.02211007    -0.81100
O133        O  0.74363709  0.71712152  0.98026838    -0.80500
C134        C  0.88322537  0.62817673  0.95143672     0.98800
O135        O  0.84215153  0.61928321  0.95001844    -0.69700
O136        O  0.79935954  0.60295898  0.97375682    -0.73200
Al137      Al  0.78926280  0.64415995  0.95871248     1.49000
C138        C  0.79199403  0.60842155  0.98688763     0.94100
O139        O  0.86173124  0.69490790  0.99247616    -0.79500
O140        O  0.83188355  0.77393125  0.95987006    -0.73000
Al141      Al  0.80332461  0.70509988  0.98529904     1.90100
O142        O  0.89718004  0.72973886  0.97526835    -0.72100
O143        O  0.83786264  0.71307709  0.93937586    -0.71900
O144        O  0.89615986  0.66541972  0.95615821    -0.77600
O145        O  0.77451299  0.67819598  0.94224234    -0.75800
O146        O  0.81800061  0.68891094  0.96744775    -1.11900
O147        O  0.73094913  0.66022741  0.96588408    -0.71100
C148        C  0.71709228  0.69255374  0.97340124     0.99600
C149        C  0.89623927  0.71365833  0.98776077     0.96000
Al150      Al  0.86190430  0.71799937  0.95842142     1.55600
O151        O  0.78840073  0.64689678  0.99214950    -0.75800
C152        C  0.80068068  0.70039827  0.93456569     1.00100
C153        C  0.81880749  0.79092943  0.97151181     0.95000
O154        O  0.81409185  0.76747321  0.98262268    -0.81100
O155        O  0.27726421  0.27737833  0.98001144    -0.80500
C156        C  0.13725172  0.36741943  0.95179890     0.98800
O157        O  0.17830025  0.37649666  0.95046609    -0.69700
O158        O  0.22326780  0.39096694  0.97388540    -0.73200
Al159      Al  0.23158794  0.35052449  0.95856808     1.49000
C160        C  0.22912439  0.38505607  0.98705855     0.94100
O161        O  0.15864378  0.29739956  0.99208580    -0.79500
O162        O  0.18912021  0.22080677  0.95889679    -0.73000
Al163      Al  0.21736213  0.28852703  0.98491694     1.90100
O164        O  0.12380680  0.26335613  0.97452395    -0.72100
O165        O  0.18174423  0.28309191  0.93882052    -0.71900
O166        O  0.12436422  0.32964603  0.95606489    -0.77600
O167        O  0.24503281  0.31790860  0.94169830    -0.75800
O168        O  0.20275538  0.30550423  0.96709940    -1.11900
O169        O  0.29001441  0.33295804  0.96520650    -0.71100
C170        C  0.30369930  0.30064497  0.97272842     0.99600
C171        C  0.12453339  0.27813957  0.98718341     0.96000
Al172      Al  0.15872004  0.27680230  0.95785962     1.55600
O173        O  0.23137617  0.34644628  0.99222808    -0.75800
C174        C  0.21840127  0.29644562  0.93392715     1.00100
C175        C  0.20255086  0.20334108  0.97045070     0.95000
O176        O  0.20742407  0.22630723  0.98169931    -0.81100
O177        O  0.74344398  0.27879283  0.52414465    -0.80500
C178        C  0.88382919  0.36889797  0.55247443     0.98800
O179        O  0.84270303  0.37605497  0.55449906    -0.69700
O180        O  0.79651714  0.39333199  0.53139564    -0.73200
Al181      Al  0.78968461  0.35030560  0.54610474     1.49000
C182        C  0.78897616  0.38897010  0.51821107     0.94100
O183        O  0.85993446  0.30427617  0.51089304    -0.79500
O184        O  0.83673145  0.22248757  0.54318578    -0.73000
Al185      Al  0.80249759  0.29245777  0.51868597     1.90100
O186        O  0.89842848  0.26987054  0.52752449    -0.72100
O187        O  0.84337017  0.28170324  0.56406491    -0.71900
O188        O  0.89747237  0.33283082  0.54708592    -0.77600
O189        O  0.77819076  0.31391978  0.56238634    -0.75800
O190        O  0.81884280  0.30749131  0.53653236    -1.11900
O191        O  0.73111423  0.33323361  0.53945544    -0.71100
C192        C  0.71715260  0.30157156  0.53167680     0.99600
C193        C  0.89554927  0.28633824  0.51513230     0.96000
Al194      Al  0.86491141  0.27924333  0.54476754     1.55600
O195        O  0.78602738  0.35097257  0.51255050    -0.75800
C196        C  0.80636404  0.29202138  0.56946482     1.00100
C197        C  0.82208133  0.20605109  0.53163366     0.95000
O198        O  0.81473663  0.23016538  0.52080433    -0.81100
O199        O  0.77365425  0.77808768  0.48019544    -0.80500
C200        C  0.63504147  0.86847319  0.45138788     0.98800
O201        O  0.67622343  0.87686689  0.44997585    -0.69700
O202        O  0.72082739  0.89215665  0.47348447    -0.73200
Al203      Al  0.72912165  0.85089531  0.45837944     1.49000
C204        C  0.72730813  0.88668905  0.48665629     0.94100
O205        O  0.65528031  0.80041201  0.49200161    -0.79500
O206        O  0.68561470  0.72207882  0.45912425    -0.73000
Al207      Al  0.71391599  0.79026016  0.48495765     1.90100
O208        O  0.62039227  0.76551815  0.47462072    -0.72100
O209        O  0.67853956  0.78373943  0.43881666    -0.71900
O210        O  0.62161961  0.83120535  0.45593550    -0.77600
O211        O  0.74259663  0.81712757  0.44172418    -0.75800
O212        O  0.69970712  0.80666995  0.46706578    -1.11900
O213        O  0.78726823  0.83334164  0.46534006    -0.71100
C214        C  0.80053665  0.80136654  0.47309369     0.99600
C215        C  0.62105087  0.78119410  0.48717506     0.96000
Al216      Al  0.65546782  0.77812623  0.45790179     1.55600
O217        O  0.72894586  0.84826762  0.49199687    -0.75800
C218        C  0.71553330  0.79623654  0.43393297     1.00100
C219        C  0.69898954  0.70489241  0.47072831     0.95000
O220        O  0.70316006  0.72799415  0.48198339    -0.81100
O221        O  0.24079347  0.22037973  0.47924135    -0.80500
C222        C  0.38475435  0.13250614  0.45247891     0.98800
O223        O  0.34394497  0.12310441  0.45060511    -0.69700
O224        O  0.29772032  0.10705769  0.47370216    -0.73200
Al225      Al  0.28962204  0.14774568  0.45841496     1.49000
C226        C  0.28918533  0.11265324  0.48675125     0.94100
O227        O  0.35795416  0.20128981  0.49294016    -0.79500
O228        O  0.33052686  0.27760736  0.45943793    -0.73000
Al229      Al  0.30006042  0.20967751  0.48497685     1.90100
O230        O  0.39451594  0.23585793  0.47593853    -0.72100
O231        O  0.34033668  0.21587536  0.43938528    -0.71900
O232        O  0.39678696  0.16999460  0.45726702    -0.77600
O233        O  0.27680988  0.18102158  0.44163711    -0.75800
O234        O  0.31694443  0.19298328  0.46737272    -1.11900
O235        O  0.23022531  0.16366899  0.46463206    -0.71100
C236        C  0.21530563  0.19599374  0.47192433     0.99600
C237        C  0.39248108  0.22082728  0.48854702     0.96000
Al238      Al  0.36158254  0.22223244  0.45874322     1.55600
O239        O  0.28545741  0.15126095  0.49194596    -0.75800
C240        C  0.30381752  0.20285632  0.43417124     1.00100
C241        C  0.31569321  0.29498427  0.47079564     0.95000
O242        O  0.30985149  0.27210177  0.48198572    -0.81100
O243        O  0.27525875  0.71560955  0.52501646    -0.80500
C244        C  0.13501151  0.63091520  0.55444896     0.98800
O245        O  0.17601223  0.62253460  0.55624971    -0.69700
O246        O  0.21951938  0.60314907  0.53291042    -0.73200
Al247      Al  0.22901470  0.64629178  0.54746917     1.49000
C248        C  0.22618329  0.60709385  0.51969038     0.94100
O249        O  0.15693818  0.69364203  0.51280077    -0.79500
O250        O  0.18639441  0.77605166  0.54461040    -0.73000
Al251      Al  0.21545403  0.70385661  0.52006336     1.90100
O252        O  0.12142714  0.73014062  0.52963254    -0.72100
O253        O  0.17947562  0.71730038  0.56567664    -0.71900
O254        O  0.12205999  0.66755026  0.54927291    -0.77600
O255        O  0.24315197  0.68243645  0.56360271    -0.75800
O256        O  0.20044247  0.68993070  0.53806259    -1.11900
O257        O  0.28743978  0.66126871  0.54035168    -0.71100
C258        C  0.30152895  0.69220133  0.53236213     0.99600
C259        C  0.12241773  0.71295496  0.51729687     0.96000
Al260      Al  0.15626109  0.72009611  0.54659211     1.55600
O261        O  0.22945625  0.64483641  0.51396050    -0.75800
C262        C  0.21636969  0.70540580  0.57084674     1.00100
C263        C  0.20036924  0.79154415  0.53285742     0.95000
O264        O  0.20559895  0.76664314  0.52206853    -0.81100
O265        O  0.74086273  0.78031631  0.27395423    -0.80500
C266        C  0.88115337  0.87013340  0.30248441     0.98800
O267        O  0.84013394  0.87922589  0.30369984    -0.69700
O268        O  0.79824401  0.89399564  0.27966926    -0.73200
Al269      Al  0.78738088  0.85418242  0.29498543     1.49000
C270        C  0.79122900  0.88762350  0.26654978     0.94100
O271        O  0.85933355  0.79927367  0.26165921    -0.79500
O272        O  0.82922193  0.72354256  0.29483987    -0.73000
Al273      Al  0.80078405  0.79094950  0.26890480     1.90100
O274        O  0.89474773  0.76658503  0.27936637    -0.72100
O275        O  0.83489237  0.78600977  0.31494127    -0.71900
O276        O  0.89396371  0.83249182  0.29804844    -0.77600
O277        O  0.77201162  0.82150721  0.31163331    -0.75800
O278        O  0.81573758  0.80841696  0.28665421    -1.11900
O279        O  0.72906996  0.83848838  0.28782740    -0.71100
C280        C  0.71474389  0.80565604  0.28065140     0.99600
C281        C  0.89367478  0.78066614  0.26662791     0.96000
Al282      Al  0.85937294  0.77970781  0.29601460     1.55600
O283        O  0.78700911  0.84884862  0.26156343    -0.75800
C284        C  0.79776364  0.79944056  0.31953655     1.00100
C285        C  0.81558665  0.70591475  0.28332279     0.95000
O286        O  0.81048879  0.72876795  0.27210382    -0.81100
O287        O  0.24045195  0.71653123  0.22971450    -0.80500
C288        C  0.38128998  0.62830536  0.20169486     0.98800
O289        O  0.34034673  0.62018502  0.19963559    -0.69700
O290        O  0.29533588  0.60294255  0.22285023    -0.73200
Al291      Al  0.28711580  0.64514563  0.20794023     1.49000
C292        C  0.28817199  0.60789093  0.23602182     0.94100
O293        O  0.35788130  0.69431403  0.24271989    -0.79500
O294        O  0.33118953  0.77433870  0.21017617    -0.73000
Al295      Al  0.29988819  0.70449914  0.23506045     1.90100
O296        O  0.39453668  0.72919980  0.22583257    -0.72100
O297        O  0.33839625  0.71426399  0.18952029    -0.71900
O298        O  0.39430310  0.66520268  0.20666186    -0.77600
O299        O  0.27418897  0.68040371  0.19147995    -0.75800
O300        O  0.31566777  0.68910633  0.21723142    -1.11900
O301        O  0.22854154  0.66127236  0.21463177    -0.71100
C302        C  0.21434397  0.69288224  0.22235661     0.99600
C303        C  0.39260034  0.71342681  0.23832861     0.96000
Al304      Al  0.36063228  0.71812149  0.20874437     1.55600
O305        O  0.28495505  0.64608576  0.24148983    -0.75800
C306        C  0.30143057  0.70286472  0.18426159     1.00100
C307        C  0.31717171  0.79088675  0.22177899     0.95000
O308        O  0.31068155  0.76690683  0.23267758    -0.81100
O309        O  0.27597772  0.21920927  0.27422234    -0.80500
C310        C  0.13674311  0.12953237  0.30297334     0.98800
O311        O  0.17788026  0.12076267  0.30432160    -0.69700
O312        O  0.22077138  0.10512645  0.28054840    -0.73200
Al313      Al  0.23067388  0.14604758  0.29566812     1.49000
C314        C  0.22803479  0.11072038  0.26743191     0.94100
O315        O  0.15743512  0.19796393  0.26207342    -0.79500
O316        O  0.18771911  0.27555030  0.29504240    -0.73000
Al317      Al  0.21610638  0.20748759  0.26926045     1.90100
O318        O  0.12240426  0.23200527  0.27956906    -0.72100
O319        O  0.18206801  0.21424373  0.31530440    -0.71900
O320        O  0.12366794  0.16684030  0.29837677    -0.77600
O321        O  0.24553419  0.17983119  0.31219266    -0.75800
O322        O  0.20167281  0.19084750  0.28708348    -1.11900
O323        O  0.28885314  0.16241483  0.28854256    -0.71100
C324        C  0.30259786  0.19482447  0.28109680     0.99600
C325        C  0.12321088  0.21703722  0.26692116     0.96000
Al326      Al  0.15782698  0.21959961  0.29629491     1.55600
O327        O  0.23081315  0.14926420  0.26219300    -0.75800
C328        C  0.21945174  0.20176793  0.31998783     1.00100
C329        C  0.20079021  0.29293086  0.28348159     0.95000
O330        O  0.20561856  0.26985151  0.27225791    -0.81100
O331        O  0.77859130  0.28107876  0.22913892    -0.80500
C332        C  0.63355823  0.36597169  0.20220462     0.98800
O333        O  0.67416079  0.37478382  0.19978835    -0.69700
O334        O  0.72137326  0.39280070  0.22262347    -0.73200
Al335      Al  0.72873689  0.35083499  0.20758526     1.49000
C336        C  0.72889213  0.38807410  0.23579061     0.94100
O337        O  0.66111633  0.29900106  0.24262999    -0.79500
O338        O  0.68806633  0.22145333  0.20938502    -0.73000
Al339      Al  0.71902320  0.29095685  0.23465455     1.90100
O340        O  0.62457099  0.26321973  0.22585330    -0.72100
O341        O  0.67633895  0.28239616  0.18924179    -0.71900
O342        O  0.62162558  0.32889303  0.20727824    -0.77600
O343        O  0.74072432  0.31599727  0.19093009    -0.75800
O344        O  0.70174831  0.30634249  0.21696732    -1.11900
O345        O  0.78817560  0.33580534  0.21379566    -0.71100
C346        C  0.80364842  0.30508167  0.22161451     0.99600
C347        C  0.62659861  0.27914326  0.23833926     0.96000
Al348      Al  0.65667911  0.27663818  0.20864571     1.55600
O349        O  0.73232404  0.34990611  0.24126864    -0.75800
C350        C  0.71259723  0.29437773  0.18372477     1.00100
C351        C  0.70414348  0.20477957  0.22069954     0.95000
O352        O  0.71035126  0.22815999  0.23181977    -0.81100
C353        C  0.93240439  0.27482525  0.23049358     0.18300
C354        C  0.96386676  0.30656784  0.23494749    -0.10800
C355        C  0.00390487  0.29283823  0.24133472    -0.11700
C356        C  0.01265267  0.24730630  0.24333110     0.19900
C357        C  0.98154603  0.21558438  0.23863515    -0.13700
C358        C  0.94155293  0.22930254  0.23224281    -0.12000
C359        C  0.05240394  0.23341494  0.25084940     0.00800
C360        C  0.08502911  0.22395821  0.25783332    -0.32000
C361        C  0.88918878  0.28865169  0.22533079     0.02200
C362        C  0.85090856  0.29775791  0.22256183    -0.33700
H363        H  0.95699799  0.34186737  0.23380464     0.13200
H364        H  0.02757537  0.31770384  0.24499236     0.13100
H365        H  0.98777205  0.18032191  0.24018839     0.12900
H366        H  0.91729124  0.20446437  0.22899255     0.12000
C367        C  0.51506836  0.25155490  0.26153478     0.18300
C368        C  0.50244560  0.20652738  0.26163282    -0.10800
C369        C  0.46116476  0.19383056  0.26729466    -0.11700
C370        C  0.43217647  0.22604231  0.27291623     0.19900
C371        C  0.44515465  0.27099609  0.27309482    -0.13700
C372        C  0.48648494  0.28371133  0.26742176    -0.12000
C373        C  0.38792162  0.21342075  0.27744107     0.00800
C374        C  0.34958356  0.20380113  0.27993263    -0.32000
C375        C  0.55601250  0.26466344  0.25458930     0.02200
C376        C  0.58912103  0.27310397  0.24774730    -0.33700
H377        H  0.52406863  0.18136918  0.25703575     0.13200
H378        H  0.45141059  0.15903770  0.26697165     0.13100
H379        H  0.42291543  0.29628602  0.27729360     0.12900
H380        H  0.49568534  0.31866111  0.26733388     0.12000
C381        C  0.47392959  0.52984456  0.19743125     0.18300
C382        C  0.46692676  0.49098326  0.20544367    -0.10800
C383        C  0.49916520  0.45726184  0.20558183    -0.11700
C384        C  0.53860619  0.46219524  0.19771226     0.19900
C385        C  0.54563023  0.50102972  0.18968643    -0.13700
C386        C  0.51335800  0.53478725  0.18954820    -0.12000
C387        C  0.57226584  0.42794692  0.19824613     0.00800
C388        C  0.60034112  0.39938811  0.19948456    -0.32000
C389        C  0.44118660  0.56502246  0.19769050     0.02200
C390        C  0.41369092  0.59419270  0.19882664    -0.33700
H391        H  0.43672023  0.48690654  0.21165750     0.13200
H392        H  0.49349116  0.42751291  0.21190089     0.13100
H393        H  0.57611813  0.50533099  0.18363555     0.12900
H394        H  0.51927265  0.56480858  0.18339121     0.12000
C395        C  0.23293384  0.42095344  0.27455873     0.18300
C396        C  0.20098980  0.44853369  0.26809407    -0.10800
C397        C  0.21418119  0.48760819  0.26111954    -0.11700
C398        C  0.25941017  0.49929027  0.26052931     0.19900
C399        C  0.29124978  0.47244517  0.26736874    -0.13700
C400        C  0.27804126  0.43332943  0.27435523    -0.12000
C401        C  0.27297556  0.53759340  0.25230754     0.00800
C402        C  0.28170424  0.56943348  0.24493467    -0.32000
C403        C  0.22006616  0.37786657  0.27997784     0.02200
C404        C  0.21029808  0.33979166  0.28271231    -0.33700
H405        H  0.16608574  0.43912382  0.26805098     0.13200
H406        H  0.18926853  0.50806824  0.25586036     0.13100
H407        H  0.32631849  0.48110187  0.26697551     0.12900
H408        H  0.30309700  0.41206280  0.27919235     0.12000
C409        C  0.25872050  0.99896071  0.24453209     0.18300
C410        C  0.22674447  0.96732182  0.24042111    -0.10800
C411        C  0.24003779  0.92720723  0.23403860    -0.11700
C412        C  0.28538554  0.91847815  0.23170751     0.19900
C413        C  0.31738969  0.95024198  0.23572241    -0.13700
C414        C  0.30408454  0.99039749  0.24210488    -0.12000
C415        C  0.29895722  0.87565924  0.22618112     0.00800
C416        C  0.30849512  0.83780535  0.22302554    -0.32000
C417        C  0.24522461  0.03930507  0.25176934     0.02200
C418        C  0.23562624  0.07237957  0.25849201    -0.33700
H419        H  0.19162868  0.97337247  0.24233875     0.13200
H420        H  0.21502571  0.90267882  0.23115018     0.13100
H421        H  0.35257970  0.94366136  0.23414572     0.12900
H422        H  0.32916218  0.01444452  0.24533628     0.12000
C423        C  0.04235765  0.03292357  0.30904036     0.18300
C424        C  0.05344417  0.98867205  0.30572431    -0.10800
C425        C  0.02049152  0.95554932  0.30561184    -0.11700
C426        C  0.97609999  0.96631043  0.30881085     0.19900
C427        C  0.96507125  0.01044616  0.31237045    -0.13700
C428        C  0.99808274  0.04362693  0.31248394    -0.12000
C429        C  0.94182364  0.93245774  0.30771039     0.00800
C430        C  0.91388527  0.90385029  0.30586751    -0.32000
C431        C  0.07595657  0.06746054  0.30812442     0.02200
C432        C  0.10404309  0.09591550  0.30637027    -0.33700
H433        H  0.08741845  0.97991300  0.30296766     0.13200
H434        H  0.02950506  0.92167254  0.30277521     0.13100
H435        H  0.93089388  0.01934455  0.31480345     0.12900
H436        H  0.98893866  0.07771228  0.31499770     0.12000
C437        C  0.08610996  0.72638374  0.23084657     0.18300
C438        C  0.04970374  0.69705048  0.23084637    -0.10800
C439        C  0.00914493  0.71018436  0.23698140    -0.11700
C440        C  0.00484541  0.75267094  0.24315626     0.19900
C441        C  0.04096075  0.78228153  0.24285626    -0.13700
C442        C  0.08143505  0.76918312  0.23672446    -0.12000
C443        C  0.96450964  0.76488568  0.25059328     0.00800
C444        C  0.93179465  0.77360414  0.25758445    -0.32000
C445        C  0.12926284  0.71184126  0.22590485     0.02200
C446        C  0.16736706  0.70172570  0.22331448    -0.33700
H447        H  0.05299259  0.66375706  0.22644104     0.13200
H448        H  0.98153617  0.68688301  0.23721861     0.13100
H449        H  0.03817077  0.81508349  0.24766378     0.12900
H450        H  0.10943858  0.79202962  0.23689565     0.12000
C451        C  0.50353069  0.74603350  0.26100091     0.18300
C452        C  0.52084941  0.72646376  0.27347717    -0.10800
C453        C  0.56164697  0.74126155  0.27913516    -0.11700
C454        C  0.58515117  0.77570644  0.27235138     0.19900
C455        C  0.56723421  0.79586172  0.26008453    -0.13700
C456        C  0.52659514  0.78110614  0.25444410    -0.12000
C457        C  0.62918167  0.78817769  0.27714817     0.00800
C458        C  0.66765902  0.79733048  0.27960518    -0.32000
C459        C  0.46297467  0.72974870  0.25450393     0.02200
C460        C  0.43011494  0.71962909  0.24773608    -0.33700
H461        H  0.50332618  0.69933797  0.27864601     0.13200
H462        H  0.57531806  0.72520514  0.28857642     0.13100
H463        H  0.58519328  0.82226747  0.25468444     0.12900
H464        H  0.51355741  0.79650189  0.24479403     0.12000
C465        C  0.74094224  0.07742754  0.22892944     0.18300
C466        C  0.78535126  0.07086317  0.23319287    -0.10800
C467        C  0.79812423  0.03084951  0.23973107    -0.11700
C468        C  0.76652527  0.99721017  0.24204543     0.19900
C469        C  0.72237927  0.00334827  0.23745806    -0.13700
C470        C  0.70960565  0.04335673  0.23092830    -0.12000
C471        C  0.77848941  0.95766526  0.24992699     0.00800
C472        C  0.78600172  0.92532363  0.25722341    -0.32000
C473        C  0.72677591  0.12051929  0.22384273     0.02200
C474        C  0.71550765  0.15832056  0.22130947    -0.33700
H475        H  0.80978126  0.09715427  0.23184623     0.13200
H476        H  0.83227088  0.02661666  0.24330777     0.13100
H477        H  0.69758678  0.97768242  0.23927045     0.12900
H478        H  0.67509822  0.04820531  0.22782546     0.12000
C479        C  0.78033719  0.57922699  0.27346550     0.18300
C480        C  0.80842795  0.54186866  0.27392428    -0.10800
C481        C  0.79586665  0.50224463  0.26700632    -0.11700
C482        C  0.75519657  0.49973889  0.25956385     0.19900
C483        C  0.72682719  0.53687651  0.25930187    -0.13700
C484        C  0.73936026  0.57644529  0.26621968    -0.12000
C485        C  0.74352910  0.45985982  0.25168082     0.00800
C486        C  0.73541904  0.42695752  0.24463057    -0.32000
C487        C  0.79471810  0.62144919  0.27936872     0.02200
C488        C  0.80547947  0.65907150  0.28251202    -0.33700
H489        H  0.84036608  0.54365619  0.27935270     0.13200
H490        H  0.81822791  0.47385352  0.26723425     0.13100
H491        H  0.69543824  0.53551474  0.25353591     0.12900
H492        H  0.71751757  0.60519751  0.26565101     0.12000
C493        C  0.27381627  0.21888761  0.39164662     0.18300
C494        C  0.22915103  0.21826442  0.38714341    -0.10800
C495        C  0.21862045  0.21826160  0.37249293    -0.11700
C496        C  0.25266626  0.21887889  0.36221156     0.19900
C497        C  0.29733963  0.22014734  0.36670692    -0.13700
C498        C  0.30787720  0.22015449  0.38136737    -0.12000
C499        C  0.24171205  0.21604778  0.34712218     0.00800
C500        C  0.23184832  0.21112442  0.33463107    -0.32000
C501        C  0.28463371  0.21620289  0.40675055     0.02200
C502        C  0.29343064  0.21160548  0.41933372    -0.33700
H503        H  0.20247569  0.21707829  0.39495305     0.13200
H504        H  0.18397517  0.21705960  0.36918626     0.13100
H505        H  0.32401742  0.22041637  0.35888895     0.12900
H506        H  0.34253742  0.22044449  0.38467763     0.12000
C507        C  0.25500464  0.49813528  0.49534617     0.18300
C508        C  0.22386074  0.47321445  0.48746989    -0.10800
C509        C  0.23750504  0.43506533  0.47999473    -0.11700
C510        C  0.28234869  0.42180866  0.48033880     0.19900
C511        C  0.31361928  0.44737697  0.48793189    -0.13700
C512        C  0.29999492  0.48545916  0.49539820    -0.12000
C513        C  0.29539307  0.37949081  0.47436769     0.00800
C514        C  0.30556012  0.34167709  0.47142719    -0.32000
C515        C  0.24100278  0.53599035  0.50371675     0.02200
C516        C  0.23221301  0.56800615  0.51102162    -0.33700
H517        H  0.18898735  0.48270475  0.48735955     0.13200
H518        H  0.21293800  0.41523396  0.47430892     0.13100
H519        H  0.34826033  0.43714979  0.48842872     0.12900
H520        H  0.32435538  0.50447047  0.50145820     0.12000
C521        C  0.23453410  0.91762757  0.52153482     0.18300
C522        C  0.24849125  0.91885352  0.50719895    -0.10800
C523        C  0.26129999  0.95921542  0.50091982    -0.11700
C524        C  0.26036204  0.99883516  0.50891410     0.19900
C525        C  0.24648175  0.99770183  0.52327393    -0.13700
C526        C  0.23363575  0.95721368  0.52957320    -0.12000
C527        C  0.27265391  0.04047530  0.50217576     0.00800
C528        C  0.28158011  0.07414303  0.49564981    -0.32000
C529        C  0.22094993  0.87559823  0.52774354     0.02200
C530        C  0.21053796  0.83823921  0.53129057    -0.33700
H531        H  0.24930589  0.88856084  0.50084123     0.13200
H532        H  0.27173361  0.95955500  0.48980775     0.13100
H533        H  0.24539173  0.02809281  0.52957062     0.12900
H534        H  0.22287929  0.95681576  0.54064872     0.12000
C535        C  0.76488814  0.78403853  0.36180747     0.18300
C536        C  0.72041619  0.78637818  0.36638936    -0.10800
C537        C  0.71036055  0.78592039  0.38106757    -0.11700
C538        C  0.74470397  0.78311238  0.39128155     0.19900
C539        C  0.78911743  0.78037672  0.38668750    -0.13700
C540        C  0.79916530  0.78083190  0.37202006    -0.12000
C541        C  0.73457916  0.78473831  0.40643740     0.00800
C542        C  0.72618082  0.78833488  0.41907320    -0.32000
C543        C  0.77556167  0.78666251  0.34670987     0.02200
C544        C  0.78531453  0.79100837  0.33420691    -0.33700
H545        H  0.69357852  0.78909485  0.35863106     0.13200
H546        H  0.67590013  0.78828508  0.38444896     0.13100
H547        H  0.81602038  0.77842462  0.39444614     0.12900
H548        H  0.83368146  0.77922891  0.36865195     0.12000
C549        C  0.47888027  0.03579897  0.44624656     0.18300
C550        C  0.52444661  0.04602597  0.44538515    -0.10800
C551        C  0.55622333  0.01174685  0.44506985    -0.11700
C552        C  0.54265645  0.96701668  0.44561806     0.19900
C553        C  0.49705975  0.95681729  0.44621578    -0.23300
C554        C  0.46530831  0.99106877  0.44652736    -0.12000
C555        C  0.57546364  0.93179227  0.44643904     0.00800
C556        C  0.60279172  0.90259487  0.44811497    -0.32000
C557        C  0.44613726  0.07093666  0.44752882     0.02200
C558        C  0.41818460  0.09943685  0.44934858    -0.33700
H559        H  0.53543832  0.08044413  0.44521915     0.13200
H560        H  0.59135026  0.02012423  0.44468416     0.13100
H561        H  0.48609222  0.92242719  0.44672435     0.12900
H562        H  0.43023647  0.98268560  0.44725183     0.12000
C563        C  0.50977041  0.75182726  0.51027788     0.18300
C564        C  0.48082092  0.78327915  0.51635222    -0.10800
C565        C  0.44082711  0.76941956  0.52266608    -0.11700
C566        C  0.42958608  0.72402695  0.52295106     0.19900
C567        C  0.45885818  0.69253804  0.51706995    -0.13700
C568        C  0.49883195  0.70638537  0.51076549    -0.12000
C569        C  0.38649075  0.71028753  0.52816222     0.00800
C570        C  0.34851638  0.70055214  0.53106793    -0.32000
C571        C  0.54971850  0.76596117  0.50298701     0.02200
C572        C  0.58266117  0.77500742  0.49616019    -0.33700
H573        H  0.48875730  0.81851985  0.51597604     0.13200
H574        H  0.41825129  0.79412610  0.52703172     0.13100
H575        H  0.45033787  0.65740642  0.51707518     0.12900
H576        H  0.52079759  0.68176842  0.50603886     0.12000
C577        C  0.00977403  0.73865892  0.49431973     0.18300
C578        C  0.97790887  0.70695420  0.49013760    -0.10800
C579        C  0.93729652  0.72073897  0.48412952    -0.11700
C580        C  0.92834863  0.76629853  0.48226517     0.19900
C581        C  0.96048642  0.79790568  0.48626474    -0.13700
C582        C  0.00104943  0.78413938  0.49225855    -0.12000
C583        C  0.88508513  0.78065497  0.47725473     0.00800
C584        C  0.84730018  0.79153089  0.47440366    -0.32000
C585        C  0.05039942  0.72514010  0.50142171     0.02200
C586        C  0.08386366  0.71730222  0.50820316    -0.33700
H587        H  0.98408988  0.67171016  0.49176486     0.13200
H588        H  0.91255495  0.69598181  0.48121834     0.13100
H589        H  0.95383131  0.83321837  0.48502264     0.12900
H590        H  0.02525330  0.80898776  0.49553928     0.12000
C591        C  0.04237913  0.53298890  0.56027762     0.18300
C592        C  0.05456539  0.48890638  0.55712172    -0.10800
C593        C  0.02217979  0.45526340  0.55675146    -0.11700
C594        C  0.97737887  0.46545625  0.55953141     0.19900
C595        C  0.96530641  0.50938695  0.56292861    -0.13700
C596        C  0.99770198  0.54304040  0.56329913    -0.12000
C597        C  0.94363192  0.43136022  0.55814890     0.00800
C598        C  0.91583550  0.40286559  0.55609871    -0.32000
C599        C  0.07518693  0.56816853  0.55956003     0.02200
C600        C  0.10252516  0.59730127  0.55789553    -0.33700
H601        H  0.08891362  0.48071297  0.55467546     0.13200
H602        H  0.03193506  0.42149547  0.55403457     0.13100
H603        H  0.93077908  0.51776520  0.56502269     0.12900
H604        H  0.98777917  0.57700875  0.56566425     0.12000
C605        C  0.08737717  0.23303927  0.47934967     0.18300
C606        C  0.05005301  0.20490941  0.47927505    -0.10800
C607        C  0.00966383  0.21949944  0.48517102    -0.11700
C608        C  0.00632050  0.26226700  0.49119400     0.19900
C609        C  0.04334234  0.29079723  0.49095058    -0.13700
C610        C  0.08371219  0.27622790  0.48504069    -0.12000
C611        C  0.96608365  0.27528356  0.49858186     0.00800
C612        C  0.93320760  0.28265309  0.50567034    -0.32000
C613        C  0.13031955  0.21672737  0.47471947     0.02200
C614        C  0.16825142  0.20519370  0.47241933    -0.33700
H615        H  0.05249157  0.17135618  0.47502532     0.13200
H616        H  0.98139807  0.19698791  0.48538986     0.13100
H617        H  0.04136303  0.32378464  0.49566352     0.12900
H618        H  0.11241598  0.29819321  0.48527219     0.12000
C619        C  0.58733514  0.26903535  0.52419170     0.18300
C620        C  0.57954830  0.22560112  0.51918327    -0.10800
C621        C  0.53801000  0.21410234  0.51335752    -0.11700
C622        C  0.50389464  0.24594593  0.51249205     0.19900
C623        C  0.51122207  0.28905669  0.51788010    -0.13700
C624        C  0.55281966  0.30057440  0.52371076    -0.12000
C625        C  0.46277329  0.23528298  0.50513210     0.00800
C626        C  0.42991254  0.22744950  0.49801995    -0.32000
C627        C  0.63170474  0.28196811  0.52862911     0.02200
C628        C  0.67019809  0.29178943  0.53088590    -0.33700
H629        H  0.60600746  0.20097702  0.51939189     0.13200
H630        H  0.53291687  0.18077082  0.50916426     0.13100
H631        H  0.48522832  0.31409104  0.51720760     0.12900
H632        H  0.55844956  0.33433660  0.52744750     0.12000
C633        C  0.75933976  0.99946555  0.50873073     0.18300
C634        C  0.76191570  0.03821448  0.50041683    -0.10800
C635        C  0.77651449  0.07816574  0.50656326    -0.11700
C636        C  0.78873821  0.07973494  0.52106962     0.19900
C637        C  0.78626730  0.04100031  0.52942729    -0.13700
C638        C  0.77163259  0.00088644  0.52325444    -0.12000
C639        C  0.80316846  0.12153001  0.52716014     0.00800
C640        C  0.81332143  0.15914689  0.53041280    -0.32000
C641        C  0.74519990  0.95831326  0.50212213     0.02200
C642        C  0.73524049  0.92501223  0.49556806    -0.33700
H643        H  0.75275364  0.03750964  0.48917063     0.13200
H644        H  0.77825427  0.10789788  0.49999467     0.13100
H645        H  0.79559899  0.04181151  0.54065421     0.12900
H646        H  0.77000883  0.97105726  0.52977194     0.12000
C647        C  0.73517559  0.57845216  0.48038649     0.18300
C648        C  0.78023126  0.57105792  0.48372650    -0.10800
C649        C  0.79324591  0.53181572  0.49071568    -0.11700
C650        C  0.76124432  0.49979720  0.49443201     0.19900
C651        C  0.71634911  0.50684905  0.49085172    -0.13700
C652        C  0.70334718  0.54605187  0.48387225    -0.12000
C653        C  0.77387832  0.46061061  0.50243260     0.00800
C654        C  0.78215514  0.42795874  0.50952179    -0.32000
C655        C  0.72113207  0.62083610  0.47462922     0.02200
C656        C  0.70989831  0.65831044  0.47157269    -0.33700
H657        H  0.80511196  0.59607644  0.48124231     0.13200
H658        H  0.82802214  0.52686733  0.49346968     0.13100
H659        H  0.69126170  0.48244419  0.49371603     0.12900
H660        H  0.66838206  0.55156385  0.48150894     0.12000
C661        C  0.97741974  0.53151632  0.94548545     0.18300
C662        C  0.02257233  0.54245379  0.94374137    -0.10800
C663        C  0.05517235  0.50893315  0.94396520    -0.11700
C664        C  0.04285600  0.46423795  0.94593710     0.19900
C665        C  0.99765203  0.45327290  0.94746543    -0.13700
C666        C  0.96507956  0.48676390  0.94723924    -0.12000
C667        C  0.07657630  0.42992239  0.94703801     0.00800
C668        C  0.10448425  0.40125769  0.94871909    -0.32000
C669        C  0.94401874  0.56619330  0.94630485     0.02200
C670        C  0.91599712  0.59470765  0.94801359    -0.33700
H671        H  0.03263927  0.57691991  0.94246417     0.13200
H672        H  0.08998094  0.51793324  0.94283852     0.13100
H673        H  0.98764522  0.41892286  0.94906700     0.12900
H674        H  0.93036676  0.47784574  0.94868782     0.12000
C675        C  0.28526965  0.76157283  0.11305240     0.18300
C676        C  0.30945276  0.78692339  0.12305083    -0.10800
C677        C  0.30886785  0.77560074  0.13761525    -0.11700
C678        C  0.28409423  0.73881537  0.14233841     0.19900
C679        C  0.25928101  0.71385150  0.13238194    -0.13700
C680        C  0.25986274  0.72519863  0.11779031    -0.12000
C681        C  0.28607680  0.72571305  0.15725686     0.00800
C682        C  0.29109617  0.71509950  0.16967373    -0.32000
C683        C  0.28821960  0.77192746  0.09793224     0.02200
C684        C  0.29350750  0.78089888  0.08540259    -0.33700
H685        H  0.32934416  0.81502161  0.11955754     0.13200
H686        H  0.32834255  0.79510161  0.14516166     0.13100
H687        H  0.24011074  0.68523900  0.13585471     0.12900
H688        H  0.24110741  0.70521379  0.11018982     0.12000
C689        C  0.08784008  0.76585422  0.02438096     0.18300
C690        C  0.08175249  0.72127339  0.02023270    -0.10800
C691        C  0.04156166  0.70776247  0.01389703    -0.11700
C692        C  0.00727793  0.73877733  0.01167812     0.19900
C693        C  0.01295147  0.78306359  0.01617126    -0.13700
C694        C  0.05312937  0.79657375  0.02249404    -0.12000
C695        C  0.96746546  0.72618323  0.00397950     0.00800
C696        C  0.93466995  0.71861416  0.99685083    -0.32000
C697        C  0.13097070  0.78074135  0.02928806     0.02200
C698        C  0.16887574  0.79190620  0.03177760    -0.33700
H699        H  0.10850390  0.69730569  0.02151168     0.13200
H700        H  0.03767593  0.67349333  0.01039736     0.13100
H701        H  0.98677956  0.80739066  0.01443858     0.12900
H702        H  0.05757628  0.83119899  0.02552690     0.12000
C703        C  0.50604087  0.75026915  0.99417829     0.18300
C704        C  0.52892616  0.77814812  0.98464594    -0.10800
C705        C  0.56987749  0.76459510  0.97886348    -0.11700
C706        C  0.58811893  0.72308002  0.98256135     0.19900
C707        C  0.56490916  0.69501037  0.99194014    -0.13700
C708        C  0.52403417  0.70853638  0.99771105    -0.12000
C709        C  0.63192490  0.71049823  0.97758829     0.00800
C710        C  0.67008685  0.70109324  0.97475517    -0.32000
C711        C  0.46510123  0.76477660  0.00084894     0.02200
C712        C  0.43179020  0.77408887  0.00747870    -0.33700
H713        H  0.51551807  0.81055775  0.98187736     0.13200
H714        H  0.58768229  0.78680061  0.97173082     0.13100
H715        H  0.57879812  0.66305071  0.99499918     0.12900
H716        H  0.50680756  0.68674465  0.00512066     0.12000
C717        C  0.25601149  0.49629396  0.01067559     0.18300
C718        C  0.30128984  0.50647848  0.01254311    -0.10800
C719        C  0.31398129  0.54665274  0.01901648    -0.11700
C720        C  0.28146318  0.57688026  0.02368718     0.19900
C721        C  0.23614305  0.56648003  0.02199271    -0.13700
C722        C  0.22343503  0.52625490  0.01551052    -0.12000
C723        C  0.29463286  0.61995710  0.02909892     0.00800
C724        C  0.30533022  0.65765390  0.03205061    -0.32000
C725        C  0.24334207  0.45612176  0.00319195     0.02200
C726        C  0.23519351  0.42316243  0.99621495    -0.33700
H727        H  0.32678478  0.48372812  0.00875635     0.13200
H728        H  0.34908995  0.55455314  0.02010227     0.13100
H729        H  0.21068982  0.58984775  0.02540151     0.12900
H730        H  0.18834224  0.51890755  0.01403696     0.12000
C731        C  0.23711910  0.07722911  0.98076821     0.18300
C732        C  0.21055120  0.03893514  0.97952142    -0.10800
C733        C  0.22286890  0.99962303  0.98662058    -0.11700
C734        C  0.26175637  0.99843315  0.99502666     0.19900
C735        C  0.28855474  0.03656514  0.99610852    -0.13700
C736        C  0.27627906  0.07578994  0.98901507    -0.12000
C737        C  0.27328775  0.95880227  0.00299245     0.00800
C738        C  0.28174709  0.92616587  0.01007925    -0.32000
C739        C  0.22293606  0.11900575  0.97458413     0.02200
C740        C  0.21245440  0.15652051  0.97129738    -0.33700
H741        H  0.17996974  0.03970956  0.97330830     0.13200
H742        H  0.20172570  0.97043667  0.98575155     0.13100
H743        H  0.31853901  0.03619672  0.00262249     0.12900
H744        H  0.29687080  0.10527581  0.99019435     0.12000
C745        C  0.72588404  0.26491888  0.14110253     0.18300
C746        C  0.73680820  0.22163186  0.13661704    -0.10800
C747        C  0.73625848  0.21062356  0.12200787    -0.11700
C748        C  0.72477690  0.24279483  0.11174902     0.19900
C749        C  0.71414936  0.28620852  0.11621657    -0.13700
C750        C  0.71470214  0.29722688  0.13083797    -0.12000
C751        C  0.72240786  0.23074988  0.09673858     0.00800
C752        C  0.71848932  0.21979715  0.08430537    -0.32000
C753        C  0.72445878  0.27562170  0.15622713     0.02200
C754        C  0.72089431  0.28414832  0.16885902    -0.33700
H755        H  0.74525701  0.19625754  0.14442089     0.13200
H756        H  0.74431014  0.17689975  0.11872663     0.13100
H757        H  0.70497847  0.31136892  0.10842312     0.12900
H758        H  0.70593151  0.33074918  0.13414427     0.12000
C759        C  0.47872094  0.96141070  0.05876326     0.18300
C760        C  0.46626916  0.00627281  0.06013809    -0.10800
C761        C  0.49867951  0.03988322  0.05976275    -0.11700
C762        C  0.54380043  0.02891428  0.05800860     0.19900
C763        C  0.55635920  0.98398716  0.05686313    -0.13700
C764        C  0.52392442  0.95035167  0.05723915    -0.12000
C765        C  0.57678287  0.06381624  0.05672424     0.00800
C766        C  0.60372394  0.09327000  0.05492448    -0.32000
C767        C  0.44495914  0.92710250  0.05806890     0.02200
C768        C  0.41662993  0.89883148  0.05648740    -0.33700
H769        H  0.43145603  0.01531556  0.06123210     0.13200
H770        H  0.48847125  0.07445559  0.06059259     0.13100
H771        H  0.59107331  0.97502151  0.05543549     0.12900
H772        H  0.53400051  0.91582974  0.05607650     0.12000
C773        C  0.43252091  0.26301022  0.97927131     0.18300
C774        C  0.43928280  0.21834630  0.98317467    -0.10800
C775        C  0.48061291  0.20459673  0.98864924    -0.11700
C776        C  0.51542611  0.23543555  0.99024100     0.19900
C777        C  0.50908655  0.27973056  0.98589575    -0.13700
C778        C  0.46778164  0.29347579  0.98043395    -0.12000
C779        C  0.55609885  0.22296174  0.99751444     0.00800
C780        C  0.58881206  0.21583203  0.00474488    -0.32000
C781        C  0.38852233  0.27825993  0.97530158     0.02200
C782        C  0.35044316  0.29000204  0.97334663    -0.33700
H783        H  0.41220824  0.19450978  0.98242238     0.13200
H784        H  0.48494335  0.17034831  0.99206307     0.13100
H785        H  0.53560724  0.30397677  0.98716957     0.12900
H786        H  0.46293176  0.32812757  0.97755423     0.12000
C787        C  0.01308585  0.24930528  0.01041286     0.18300
C788        C  0.98635689  0.28173101  0.01699026    -0.10800
C789        C  0.94596324  0.26961157  0.02341279    -0.11700
C790        C  0.93206399  0.22495705  0.02331818     0.19900
C791        C  0.95915349  0.19241720  0.01694288    -0.13700
C792        C  0.99954183  0.20453449  0.01052196    -0.12000
C793        C  0.88844601  0.21319797  0.02863164     0.00800
C794        C  0.85018270  0.20442708  0.03151363    -0.32000
C795        C  0.05334516  0.26205200  0.00301588     0.02200
C796        C  0.08627701  0.27106860  0.99617040    -0.33700
H797        H  0.99631855  0.31647365  0.01691699     0.13200
H798        H  0.92512784  0.29515892  0.02815682     0.13100
H799        H  0.94858541  0.15785709  0.01664990     0.12900
H800        H  0.01976257  0.17916651  0.00541342     0.12000
C801        C  0.78806747  0.91863199  0.98150707     0.18300
C802        C  0.81746414  0.94011210  0.99096680    -0.10800
C803        C  0.80463999  0.97951640  0.99785877    -0.11700
C804        C  0.76227105  0.99770433  0.99536933     0.19900
C805        C  0.73308591  0.97670129  0.98571416    -0.13700
C806        C  0.74593133  0.93719650  0.97881166    -0.12000
C807        C  0.74868761  0.03715446  0.00306889     0.00800
C808        C  0.73959166  0.06988495  0.01002562    -0.32000
C809        C  0.79984125  0.87569232  0.97565105     0.02200
C810        C  0.80928090  0.83776120  0.97254776    -0.33700
H811        H  0.84992468  0.92585579  0.99326362     0.13200
H812        H  0.82746140  0.99538011  0.00531361     0.13100
H813        H  0.70020708  0.99040575  0.98371749     0.12900
H814        H  0.72272070  0.92065920  0.97164163     0.12000
C815        C  0.76371039  0.49827794  0.01079671     0.18300
C816        C  0.71947259  0.49351279  0.01540107    -0.10800
C817        C  0.70551586  0.45384495  0.02189142    -0.11700
C818        C  0.73573947  0.41871624  0.02383889     0.19900
C819        C  0.78025832  0.42390048  0.01956197    -0.13700
C820        C  0.79420980  0.46356186  0.01306367    -0.12000
C821        C  0.72037163  0.37602239  0.02893374     0.00800
C822        C  0.70884777  0.33831584  0.03151700    -0.32000
C823        C  0.77691858  0.53766063  0.00302030     0.02200
C824        C  0.78554738  0.57012153  0.99590096    -0.33700
H825        H  0.69551347  0.52001928  0.01364837     0.13200
H826        H  0.67093869  0.45011848  0.02501744     0.13100
H827        H  0.80385696  0.39683032  0.02087946     0.12900
H828        H  0.82842522  0.46671814  0.00949522     0.12000
C829        C  0.76839651  0.71933492  0.89234442     0.18300
C830        C  0.80254191  0.72379356  0.88219430    -0.10800
C831        C  0.79235595  0.72497501  0.86752280    -0.11700
C832        C  0.74795461  0.72170777  0.86287493     0.19900
C833        C  0.71373464  0.71793767  0.87303258    -0.13700
C834        C  0.72392325  0.71675695  0.88770821    -0.12000
C835        C  0.73776143  0.71976785  0.84772005     0.00800
C836        C  0.72916779  0.71520975  0.83512105    -0.32000
C837        C  0.77916057  0.71543660  0.90742054     0.02200
C838        C  0.78864221  0.70996705  0.91991372    -0.33700
H839        H  0.83706028  0.72562724  0.88560584     0.13200
H840        H  0.81916239  0.72765482  0.85979884     0.13100
H841        H  0.67929642  0.71513619  0.86960346     0.12900
H842        H  0.69719722  0.71310935  0.89541962     0.12000
C843        C  0.24653068  0.28287903  0.89124792     0.18300
C844        C  0.21169124  0.28662857  0.88124510    -0.10800
C845        C  0.22092231  0.28704330  0.86651648    -0.11700
C846        C  0.26506138  0.28371214  0.86168501     0.19900
C847        C  0.29980925  0.27936436  0.87168410    -0.13700
C848        C  0.29058541  0.27895973  0.88640281    -0.12000
C849        C  0.27504569  0.28685002  0.84656379     0.00800
C850        C  0.28472962  0.29181121  0.83408828    -0.32000
C851        C  0.23726340  0.28485177  0.90644243     0.02200
C852        C  0.22915920  0.28866890  0.91908316    -0.33700
H853        H  0.17750470  0.28986983  0.88483278     0.13200
H854        H  0.19374635  0.29063438  0.85891924     0.13100
H855        H  0.33407990  0.27697557  0.86811095     0.12900
H856        H  0.31785505  0.27623124  0.89400269     0.12000
C857        C  0.47592088  0.46915844  0.80897424     0.18300
C858        C  0.46408540  0.51364513  0.80632442    -0.10800
C859        C  0.49670344  0.54712170  0.80639021    -0.11700
C860        C  0.54147535  0.53645313  0.80910906     0.19900
C861        C  0.55326525  0.49205980  0.81195860    -0.13700
C862        C  0.52061661  0.45855143  0.81189278    -0.12000
C863        C  0.57538908  0.57067882  0.80827469     0.00800
C864        C  0.60335940  0.59931558  0.80666866    -0.32000
C865        C  0.44260102  0.43433035  0.80797867     0.02200
C866        C  0.41472430  0.40560182  0.80623245    -0.33700
H867        H  0.42976662  0.52234855  0.80397414     0.13200
H868        H  0.48710912  0.58121369  0.80409075     0.13100
H869        H  0.58774510  0.48324981  0.81399966     0.12900
H870        H  0.53033860  0.42430987  0.81388320     0.12000
C871        C  0.23463296  0.73805399  0.61294047     0.18300
C872        C  0.22946821  0.78251834  0.61728893    -0.10800
C873        C  0.22888687  0.79340136  0.63189274    -0.11700
C874        C  0.23346011  0.75990557  0.64225893     0.19900
C875        C  0.23918341  0.71547786  0.63791794    -0.13700
C876        C  0.23976495  0.70458428  0.62330010    -0.12000
C877        C  0.23018175  0.77097974  0.65729101     0.00800
C878        C  0.22481111  0.78090838  0.66972869    -0.32000
C879        C  0.23217721  0.72663206  0.59791449     0.02200
C880        C  0.22697256  0.71717223  0.58542325    -0.33700
H881        H  0.22515060  0.80865480  0.60940138     0.13200
H882        H  0.22416928  0.82782666  0.63510087     0.13100
H883        H  0.24248661  0.68923424  0.64581811     0.12900
H884        H  0.24346815  0.67003965  0.62008702     0.12000
C885        C  0.01198174  0.75753758  0.76121033     0.18300
C886        C  0.00529481  0.71237249  0.76442585    -0.10800
C887        C  0.96473649  0.69817843  0.77024217    -0.11700
C888        C  0.93069022  0.72909793  0.77288661     0.19900
C889        C  0.93769700  0.77438179  0.76991980    -0.13700
C890        C  0.97824238  0.78857009  0.76409685    -0.12000
C891        C  0.88748311  0.71418985  0.77760498     0.00800
C892        C  0.84956691  0.70359782  0.78023470    -0.32000
C893        C  0.05221983  0.77132893  0.75407913     0.02200
C894        C  0.08503691  0.78002632  0.74717862    -0.33700
H895        H  0.03102169  0.68802428  0.76212998     0.13200
H896        H  0.95956518  0.66304259  0.77236076     0.13100
H897        H  0.91145605  0.79853303  0.77179106     0.12900
H898        H  0.98288818  0.82350051  0.76154832     0.12000
C899        C  0.42855539  0.76571667  0.73187059     0.18300
C900        C  0.43091286  0.72820348  0.74079185    -0.10800
C901        C  0.47165483  0.71552862  0.74687904    -0.11700
C902        C  0.51027461  0.74026407  0.74407197     0.19900
C903        C  0.50809878  0.77731934  0.73494604    -0.13700
C904        C  0.46730491  0.79002287  0.72885733    -0.12000
C905        C  0.55140366  0.72931005  0.75125909     0.00800
C906        C  0.58493597  0.72224808  0.75805735    -0.32000
C907        C  0.38582989  0.78064051  0.72667148     0.02200
C908        C  0.34822375  0.79194485  0.72384934    -0.33700
H909        H  0.40110653  0.70936276  0.74328746     0.13200
H910        H  0.47286126  0.68703268  0.75400473     0.13100
H911        H  0.53768616  0.79688661  0.73278834     0.12900
H912        H  0.46581300  0.81927941  0.72206647     0.12000
C913        C  0.23508145  0.57956632  0.72982231     0.18300
C914        C  0.28066289  0.57173377  0.73212160    -0.10800
C915        C  0.29487071  0.53184016  0.73843438    -0.11700
C916        C  0.26353685  0.49960045  0.74249090     0.19900
C917        C  0.21806734  0.50695720  0.73984919    -0.13700
C918        C  0.20386561  0.54683737  0.73354683    -0.12000
C919        C  0.27745121  0.46032440  0.75018598     0.00800
C920        C  0.28628089  0.42811070  0.75739212    -0.32000
C921        C  0.22021472  0.62263909  0.72491727     0.02200
C922        C  0.20902435  0.66046412  0.72237452    -0.33700
H923        H  0.30508865  0.59697836  0.72941562     0.13200
H924        H  0.33006941  0.52665586  0.74048829     0.13100
H925        H  0.19350237  0.48237273  0.74300984     0.12900
H926        H  0.16853667  0.55266031  0.73195757     0.12000
C927        C  0.25628696  0.00213022  0.75923225     0.18300
C928        C  0.30028934  0.00809328  0.76400855    -0.10800
C929        C  0.31281932  0.04771431  0.77090543    -0.11700
C930        C  0.28140768  0.08165095  0.77310500     0.19900
C931        C  0.23722002  0.07541439  0.76852680    -0.13700
C932        C  0.22468830  0.03578307  0.76162396    -0.12000
C933        C  0.29521864  0.12418428  0.77890404     0.00800
C934        C  0.30614755  0.16174113  0.78205785    -0.32000
C935        C  0.24420075  0.96228176  0.75140540     0.02200
C936        C  0.23603881  0.92918804  0.74445858    -0.33700
H937        H  0.32510277  0.98244394  0.76217067     0.13200
H938        H  0.34716737  0.05226306  0.77423551     0.13100
H939        H  0.21270226  0.10156954  0.77000948     0.12900
H940        H  0.19063183  0.03172544  0.75793315     0.12000
C941        C  0.79128721  0.23778940  0.64113422     0.18300
C942        C  0.83022410  0.25400245  0.63468588    -0.10800
C943        C  0.83055506  0.26462114  0.62007288    -0.11700
C944        C  0.79196055  0.25913734  0.61173109     0.19900
C945        C  0.75290008  0.24299269  0.61815868    -0.13700
C946        C  0.75256896  0.23233914  0.63281508    -0.12000
C947        C  0.79300894  0.26994432  0.59661591     0.00800
C948        C  0.79716693  0.27963107  0.58409699    -0.32000
C949        C  0.79172133  0.22639743  0.65621402     0.02200
C950        C  0.79551286  0.21699673  0.66877868    -0.33700
H951        H  0.86041100  0.25831802  0.64095265     0.13200
H952        H  0.86098625  0.27701837  0.61526726     0.13100
H953        H  0.72282106  0.23854584  0.61185255     0.12900
H954        H  0.72224203  0.21976769  0.63763479     0.12000
C955        C  0.04348376  0.96773066  0.69555445     0.18300
C956        C  0.05558583  0.01277794  0.69662287    -0.10800
C957        C  0.02269302  0.04595261  0.69675125    -0.11700
C958        C  0.97747153  0.03432818  0.69581416     0.19900
C959        C  0.96539429  0.98930607  0.69458335    -0.13700
C960        C  0.99829206  0.95612761  0.69445304    -0.12000
C961        C  0.94354384  0.06840596  0.69674277     0.00800
C962        C  0.91559932  0.09704363  0.69830802    -0.32000
C963        C  0.07714853  0.93338238  0.69635439     0.02200
C964        C  0.10472088  0.90442947  0.69797823    -0.33700
H965        H  0.09035456  0.02219786  0.69758186     0.13200
H966        H  0.03248386  0.08059539  0.69779270     0.13100
H967        H  0.93057705  0.97982553  0.69393645     0.12900
H968        H  0.98846072  0.92142205  0.69372198     0.12000
C969        C  0.76577614  0.99905406  0.75922448     0.18300
C970        C  0.79243673  0.96097822  0.75766554    -0.10800
C971        C  0.78058409  0.92119179  0.76449585    -0.11700
C972        C  0.74198671  0.91921739  0.77294019     0.19900
C973        C  0.71591069  0.95757993  0.77478296    -0.13700
C974        C  0.72778362  0.99739914  0.76795305    -0.12000
C975        C  0.72739697  0.87697536  0.77863859     0.00800
C976        C  0.71549944  0.83974541  0.78172550    -0.32000
C977        C  0.77599790  0.03897434  0.75126744     0.02200
C978        C  0.78292126  0.07180732  0.74413081    -0.33700
H979        H  0.82178359  0.96175605  0.75090684     0.13200
H980        H  0.80084112  0.89169748  0.76288879     0.13100
H981        H  0.68581859  0.95641460  0.78118557     0.12900
H982        H  0.70680433  0.02654712  0.76920321     0.12000
C983        C  0.78008048  0.41885408  0.73158423     0.18300
C984        C  0.74145516  0.41909213  0.74003825    -0.10800
C985        C  0.72778319  0.45829139  0.74690366    -0.11700
C986        C  0.75266422  0.49752124  0.74535815     0.19900
C987        C  0.79096804  0.49745630  0.73675504    -0.13700
C988        C  0.80467254  0.45821455  0.72989294    -0.12000
C989        C  0.74022466  0.53724423  0.75310930     0.00800
C990        C  0.73231807  0.57039043  0.76001037    -0.32000
C991        C  0.79573016  0.37742949  0.72554498     0.02200
C992        C  0.80726244  0.34024892  0.72224570    -0.33700
H993        H  0.72239827  0.38876328  0.74154272     0.13200
H994        H  0.69829683  0.45781792  0.75359726     0.13100
H995        H  0.81063736  0.52752038  0.73555649     0.12900
H996        H  0.83480812  0.45837300  0.72350594     0.12000
C997        C  0.08852830  0.26998299  0.77222543     0.18300
C998        C  0.08606247  0.23229010  0.76334107    -0.10800
C999        C  0.04492385  0.21812741  0.75788411    -0.11700
C1000       C  0.00588609  0.24149685  0.76127609     0.19900
C1001       C  0.00812304  0.27857248  0.77045649    -0.13700
C1002       C  0.04936617  0.29277989  0.77592381    -0.12000
C1003       C  0.96441320  0.22956300  0.75438200     0.00800
C1004       C  0.93121355  0.22175128  0.74745670    -0.32000
C1005       C  0.13162692  0.28623663  0.77676592     0.02200
C1006       C  0.16956017  0.29760273  0.77918527    -0.33700
H1007       H  0.11608542  0.21448166  0.76035436     0.13200
H1008       H  0.04372131  0.18964640  0.75071756     0.13100
H1009       H  0.97822853  0.29712774  0.77307770     0.12900
H1010       H  0.05082774  0.32206432  0.78273795     0.12000
C1011       C  0.58991201  0.23184459  0.73185730     0.18300
C1012       C  0.54930175  0.22621637  0.72458869    -0.10800
C1013       C  0.50937658  0.23996373  0.73102342    -0.11700
C1014       C  0.50996382  0.25939985  0.74472156     0.19900
C1015       C  0.55064049  0.26543102  0.75188482    -0.13700
C1016       C  0.59043558  0.25173493  0.74547115    -0.12000
C1017       C  0.46891811  0.27118697  0.75179129     0.00800
C1018       C  0.43533175  0.27883905  0.75846030    -0.32000
C1019       C  0.63129168  0.21664476  0.72571856     0.02200
C1020       C  0.66870277  0.20572796  0.72251440    -0.33700
H1021       H  0.54845895  0.21084072  0.71407431     0.13200
H1022       H  0.47806508  0.23491023  0.72541443     0.13100
H1023       H  0.55153075  0.28015891  0.76249892     0.12900
H1024       H  0.62163061  0.25620529  0.75120582     0.12000
loop_ 
_geom_bond_atom_site_label_1 
_geom_bond_atom_site_label_2 
_geom_bond_distance 
_geom_bond_site_symmetry_2 
_ccdc_geom_bond_type 
O1           C16   1.256       .  A
O1           Al9   1.880       .  S
C2           O12   1.262       .  A
C2            O3   1.267       .  A
C2          C962   1.439       .  S
O3           Al5   1.930       .  S
O4            C6   1.255       .  A
O4           Al5   1.895       .  S
Al5          O13   1.905       .  S
Al5          O15   1.928       .  S
Al5          O14   1.793       .  S
C6           O19   1.257       .  A
C6          C978   1.438       .  S
O7           C17   1.257       .  A
O7           Al9   1.901       .  S
O8           C21   1.263       .  A
O8          Al18   1.910       .  S
Al9          O22   1.912       .  S
Al9          O19   1.908       .  S
Al9          O14   1.791       .  S
O10          C17   1.259       .  A
O10         Al18   1.918       .  S
O11          C20   1.257       .  A
O11         Al18   1.913       .  S
O12         Al18   1.895       .  S
O13          C20   1.256       .  A
O14         Al18   1.792       .  S
O15          C16   1.264       .  A
C16        C1020   1.435       .  S
C17        C1004   1.437       .  S
C20         C950   1.443       .  S
C21          O22   1.262       .  A
C21         C992   1.436       .  S
O23          C38   1.256       .  A
O23         Al31   1.879       .  S
C24          O34   1.262       .  A
C24          O25   1.267       .  A
C24         C964   1.438       .  S
O25         Al27   1.932       .  S
O26          C28   1.256       .  A
O26         Al27   1.894       .  S
Al27         O35   1.901       .  S
Al27         O37   1.926       .  S
Al27         O36   1.790       .  S
C28          O41   1.258       .  A
C28         C936   1.439       .  S
O29          C39   1.257       .  A
O29         Al31   1.900       .  S
O30          C43   1.262       .  A
O30         Al40   1.905       .  S
Al31         O44   1.920       .  S
Al31         O41   1.914       .  S
Al31         O36   1.789       .  S
O32          C39   1.259       .  A
O32         Al40   1.915       .  S
O33          C42   1.256       .  A
O33         Al40   1.911       .  S
O34         Al40   1.892       .  S
O35          C42   1.255       .  A
O36         Al40   1.791       .  S
O37          C38   1.263       .  A
C38         C908   1.434       .  S
C39         C894   1.434       .  S
C42         C878   1.438       .  S
C43          O44   1.264       .  A
C43         C922   1.436       .  S
O45          C60   1.258       .  A
O45         Al53   1.884       .  S
C46          O56   1.261       .  A
C46          O47   1.266       .  A
C46         C866   1.443       .  S
O47         Al49   1.930       .  S
O48          C50   1.254       .  A
O48         Al49   1.893       .  S
Al49         O57   1.895       .  S
Al49         O59   1.931       .  S
Al49         O58   1.791       .  S
C50          O63   1.256       .  A
C50         C920   1.436       .  S
O51          C61   1.259       .  A
O51         Al53   1.899       .  S
O52          C65   1.262       .  A
O52         Al62   1.913       .  S
Al53         O66   1.912       .  S
Al53         O63   1.909       .  S
Al53         O58   1.791       .  S
O54          C61   1.262       .  A
O54         Al62   1.921       .  S
O55          C64   1.258       .  A
O55         Al62   1.917       .  S
O56         Al62   1.899       .  S
O57          C64   1.254       .  A
O58         Al62   1.793       .  S
O59          C60   1.265       .  A
C60        C1006   1.437       .  S
C61        C1018   1.436       .  S
C64         C850   1.440       .  S
C65          O66   1.260       .  A
C65         C934   1.438       .  S
O67          C82   1.256       .  A
O67         Al75   1.880       .  S
C68          O78   1.263       .  A
C68          O69   1.267       .  A
C68         C864   1.441       .  S
O69         Al71   1.932       .  S
O70          C72   1.254       .  A
O70         Al71   1.891       .  S
Al71         O79   1.897       .  S
Al71         O81   1.928       .  S
Al71         O80   1.789       .  S
C72          O85   1.257       .  A
C72         C990   1.436       .  S
O73          C83   1.257       .  A
O73         Al75   1.898       .  S
O74          C87   1.264       .  A
O74         Al84   1.910       .  S
Al75         O88   1.917       .  S
Al75         O85   1.910       .  S
Al75         O80   1.789       .  S
O76          C83   1.260       .  A
O76         Al84   1.918       .  S
O77          C86   1.257       .  A
O77         Al84   1.918       .  S
O78         Al84   1.897       .  S
O79          C86   1.254       .  A
O80         Al84   1.792       .  S
O81          C82   1.264       .  A
C82         C892   1.435       .  S
C83         C906   1.435       .  S
C86         C836   1.441       .  S
C87          O88   1.263       .  A
C87         C976   1.437       .  S
O89         C104   1.256       .  A
O89         Al97   1.884       .  S
C90         O100   1.262       .  A
C90          O91   1.266       .  A
C90         C766   1.440       .  S
O91         Al93   1.931       .  S
O92          C94   1.257       .  A
O92         Al93   1.895       .  S
Al93        O101   1.906       .  S
Al93        O103   1.928       .  S
Al93        O102   1.791       .  S
C94         O107   1.258       .  A
C94         C808   1.437       .  S
O95         C105   1.257       .  A
O95         Al97   1.902       .  S
O96         C109   1.263       .  A
O96        Al106   1.907       .  S
Al97        O110   1.916       .  S
Al97        O107   1.910       .  S
Al97        O102   1.789       .  S
O98         C105   1.259       .  A
O98        Al106   1.916       .  S
O99         C108   1.257       .  A
O99        Al106   1.913       .  S
O100       Al106   1.897       .  S
O101        C108   1.257       .  A
O102       Al106   1.792       .  S
O103        C104   1.263       .  A
C104        C794   1.438       .  S
C105        C780   1.438       .  S
C108        C752   1.441       .  S
C109        O110   1.263       .  A
C109        C822   1.437       .  S
O111        C126   1.257       .  A
O111       Al119   1.881       .  S
C112        O122   1.262       .  A
C112        O113   1.267       .  A
C112        C768   1.439       .  S
O113       Al115   1.931       .  S
O114        C116   1.255       .  A
O114       Al115   1.896       .  S
Al115       O123   1.902       .  S
Al115       O125   1.927       .  S
Al115       O124   1.792       .  S
C116        O129   1.257       .  A
C116        C738   1.439       .  S
O117        C127   1.259       .  A
O117       Al119   1.906       .  S
O118        C131   1.262       .  A
O118       Al128   1.906       .  S
Al119       O132   1.914       .  S
Al119       O129   1.909       .  S
Al119       O124   1.792       .  S
O120        C127   1.260       .  A
O120       Al128   1.917       .  S
O121        C130   1.256       .  A
O121       Al128   1.912       .  S
O122       Al128   1.893       .  S
O123        C130   1.255       .  A
O124       Al128   1.793       .  S
O125        C126   1.264       .  A
C126        C698   1.435       .  S
C127        C712   1.439       .  S
C130        C684   1.442       .  S
C131        O132   1.262       .  A
C131        C724   1.435       .  S
O133        C148   1.257       .  A
O133       Al141   1.883       .  S
C134        O144   1.260       .  A
C134        O135   1.266       .  A
C134        C670   1.440       .  S
O135       Al137   1.932       .  S
O136        C138   1.255       .  A
O136       Al137   1.895       .  S
Al137       O145   1.897       .  S
Al137       O147   1.934       .  S
Al137       O146   1.788       .  S
C138        O151   1.258       .  A
C138        C824   1.438       .  S
O139        C149   1.258       .  A
O139       Al141   1.898       .  S
O140        C153   1.262       .  A
O140       Al150   1.908       .  S
Al141       O154   1.915       .  S
Al141       O151   1.913       .  S
Al141       O146   1.789       .  S
O142        C149   1.262       .  A
O142       Al150   1.923       .  S
O143        C152   1.259       .  A
O143       Al150   1.920       .  S
O144       Al150   1.893       .  S
O145        C152   1.255       .  A
O146       Al150   1.792       .  S
O147        C148   1.266       .  A
C148        C710   1.438       .  S
C149        C696   1.436       .  S
C152        C838   1.441       .  S
C153        O154   1.262       .  A
C153        C810   1.436       .  S
O155        C170   1.257       .  A
O155       Al163   1.884       .  S
C156        O166   1.262       .  A
C156        O157   1.267       .  A
C156        C668   1.441       .  S
O157       Al159   1.930       .  S
O158        C160   1.253       .  A
O158       Al159   1.889       .  S
Al159       O167   1.895       .  S
Al159       O169   1.930       .  S
Al159       O168   1.792       .  S
C160        O173   1.257       .  A
C160        C726   1.436       .  S
O161        C171   1.259       .  A
O161       Al163   1.903       .  S
O162        C175   1.264       .  A
O162       Al172   1.913       .  S
Al163       O176   1.912       .  S
Al163       O173   1.911       .  S
Al163       O168   1.792       .  S
O164        C171   1.260       .  A
O164       Al172   1.919       .  S
O165        C174   1.257       .  A
O165       Al172   1.916       .  S
O166       Al172   1.897       .  S
O167        C174   1.254       .  A
O168       Al172   1.793       .  S
O169        C170   1.265       .  A
C170        C782   1.438       .  S
C171        C796   1.438       .  S
C174        C852   1.441       .  S
C175        O176   1.262       .  A
C175        C740   1.437       .  S
O177        C192   1.258       .  A
O177       Al185   1.889       .  S
C178        O188   1.260       .  A
C178        O179   1.266       .  A
C178        C598   1.438       .  S
O179       Al181   1.930       .  S
O180        C182   1.256       .  A
O180       Al181   1.896       .  S
Al181       O189   1.903       .  S
Al181       O191   1.929       .  S
Al181       O190   1.791       .  S
C182        O195   1.258       .  A
C182        C654   1.438       .  S
O183        C193   1.258       .  A
O183       Al185   1.904       .  S
O184        C197   1.261       .  A
O184       Al194   1.905       .  S
Al185       O198   1.914       .  S
Al185       O195   1.911       .  S
Al185       O190   1.790       .  S
O186        C193   1.260       .  A
O186       Al194   1.918       .  S
O187        C196   1.258       .  A
O187       Al194   1.915       .  S
O188       Al194   1.892       .  S
O189        C196   1.256       .  A
O190       Al194   1.792       .  S
O191        C192   1.264       .  A
C192        C628   1.439       .  S
C193        C612   1.439       .  S
C196        C948   1.442       .  S
C197        O198   1.262       .  A
C197        C640   1.435       .  S
O199        C214   1.257       .  A
O199       Al207   1.882       .  S
C200        O210   1.262       .  A
C200        O201   1.267       .  A
C200        C556   1.440       .  S
O201       Al203   1.931       .  S
O202        C204   1.254       .  A
O202       Al203   1.890       .  S
Al203       O211   1.897       .  S
Al203       O213   1.932       .  S
Al203       O212   1.789       .  S
C204        O217   1.257       .  A
C204        C642   1.436       .  S
O205        C215   1.259       .  A
O205       Al207   1.902       .  S
O206        C219   1.264       .  A
O206       Al216   1.912       .  S
Al207       O220   1.914       .  S
Al207       O217   1.911       .  S
Al207       O212   1.790       .  S
O208        C215   1.261       .  A
O208       Al216   1.921       .  S
O209        C218   1.257       .  A
O209       Al216   1.919       .  S
O210       Al216   1.896       .  S
O211        C218   1.254       .  A
O212       Al216   1.792       .  S
O213        C214   1.265       .  A
C214        C584   1.437       .  S
C215        C572   1.438       .  S
C218        C542   1.442       .  S
C219        O220   1.262       .  A
C219        C656   1.437       .  S
O221        C236   1.257       .  A
O221       Al229   1.882       .  S
C222        O232   1.261       .  A
C222        O223   1.267       .  A
C222        C558   1.440       .  S
O223       Al225   1.932       .  S
O224        C226   1.255       .  A
O224       Al225   1.893       .  S
Al225       O233   1.896       .  S
Al225       O235   1.934       .  S
Al225       O234   1.789       .  S
C226        O239   1.259       .  A
C226        C528   1.442       .  S
O227        C237   1.259       .  A
O227       Al229   1.903       .  S
O228        C241   1.261       .  A
O228       Al238   1.905       .  S
Al229       O242   1.916       .  S
Al229       O239   1.920       .  S
Al229       O234   1.790       .  S
O230        C237   1.262       .  A
O230       Al238   1.924       .  S
O231        C240   1.258       .  A
O231       Al238   1.921       .  S
O232       Al238   1.894       .  S
O233        C240   1.254       .  A
O234       Al238   1.793       .  S
O235        C236   1.265       .  A
C236        C614   1.438       .  S
C237        C626   1.440       .  S
C240        C502   1.442       .  S
C241        O242   1.262       .  A
C241        C514   1.434       .  S
O243        C258   1.257       .  A
O243       Al251   1.883       .  S
C244        O254   1.261       .  A
C244        O245   1.265       .  A
C244        C600   1.439       .  S
O245       Al247   1.927       .  S
O246        C248   1.255       .  A
O246       Al247   1.894       .  S
Al247       O255   1.899       .  S
Al247       O257   1.928       .  S
Al247       O256   1.793       .  S
C248        O261   1.256       .  A
C248        C516   1.434       .  S
O249        C259   1.258       .  A
O249       Al251   1.903       .  S
O250        C263   1.264       .  A
O250       Al260   1.915       .  S
Al251       O264   1.915       .  S
Al251       O261   1.905       .  S
Al251       O256   1.789       .  S
O252        C259   1.260       .  A
O252       Al260   1.917       .  S
O253        C262   1.257       .  A
O253       Al260   1.911       .  S
O254       Al260   1.897       .  S
O255        C262   1.255       .  A
O256       Al260   1.791       .  S
O257        C258   1.264       .  A
C258        C570   1.436       .  S
C259        C586   1.438       .  S
C262        C880   1.438       .  S
C263        O264   1.262       .  A
C263        C530   1.441       .  S
O265        C280   1.257       .  A
O265       Al273   1.885       .  S
C266        O276   1.262       .  A
C266        O267   1.265       .  A
C266        C430   1.443       .  S
O267       Al269   1.928       .  S
O268        C270   1.255       .  A
O268       Al269   1.892       .  S
Al269       O277   1.895       .  S
Al269       O279   1.927       .  S
Al269       O278   1.791       .  S
C270        O283   1.258       .  A
C270        C472   1.436       .  S
O271        C281   1.259       .  A
O271       Al273   1.899       .  S
O272        C285   1.263       .  A
O272       Al282   1.914       .  S
Al273       O286   1.911       .  S
Al273       O283   1.912       .  S
Al273       O278   1.791       .  S
O274        C281   1.262       .  A
O274       Al282   1.922       .  S
O275        C284   1.260       .  A
O275       Al282   1.922       .  S
O276       Al282   1.901       .  S
O277        C284   1.255       .  A
O278       Al282   1.792       .  S
O279        C280   1.264       .  A
C280        C458   1.436       .  S
C281        C444   1.437       .  S
C284        C544   1.442       .  S
C285        O286   1.261       .  A
C285        C488   1.439       .  S
O287        C302   1.257       .  A
O287       Al295   1.884       .  S
C288        O298   1.260       .  A
C288        O289   1.265       .  A
C288        C390   1.436       .  S
O289       Al291   1.926       .  S
O290        C292   1.256       .  A
O290       Al291   1.897       .  S
Al291       O299   1.904       .  S
Al291       O301   1.926       .  S
Al291       O300   1.792       .  S
C292        O305   1.257       .  A
C292        C402   1.436       .  S
O293        C303   1.258       .  A
O293       Al295   1.902       .  S
O294        C307   1.262       .  A
O294       Al304   1.907       .  S
Al295       O308   1.913       .  S
Al295       O305   1.906       .  S
Al295       O300   1.789       .  S
O296        C303   1.260       .  A
O296       Al304   1.916       .  S
O297        C306   1.258       .  A
O297       Al304   1.914       .  S
O298       Al304   1.890       .  S
O299        C306   1.256       .  A
O300       Al304   1.791       .  S
O301        C302   1.264       .  A
C302        C446   1.436       .  S
C303        C460   1.436       .  S
C306        C682   1.442       .  S
C307        O308   1.262       .  A
C307        C416   1.435       .  S
O309        C324   1.257       .  A
O309       Al317   1.885       .  S
C310        O320   1.261       .  A
C310        O311   1.267       .  A
C310        C432   1.442       .  S
O311       Al313   1.934       .  S
O312        C314   1.254       .  A
O312       Al313   1.890       .  S
Al313       O321   1.894       .  S
Al313       O323   1.932       .  S
Al313       O322   1.789       .  S
C314        O327   1.258       .  A
C314        C418   1.437       .  S
O315        C325   1.259       .  A
O315       Al317   1.902       .  S
O316        C329   1.262       .  A
O316       Al326   1.906       .  S
Al317       O330   1.916       .  S
Al317       O327   1.917       .  S
Al317       O322   1.790       .  S
O318        C325   1.261       .  A
O318       Al326   1.921       .  S
O319        C328   1.259       .  A
O319       Al326   1.921       .  S
O320       Al326   1.895       .  S
O321        C328   1.254       .  A
O322       Al326   1.792       .  S
O323        C324   1.265       .  A
C324        C374   1.438       .  S
C325        C360   1.437       .  S
C328        C500   1.441       .  S
C329        O330   1.262       .  A
C329        C404   1.436       .  S
O331        C346   1.257       .  A
O331       Al339   1.883       .  S
C332        O342   1.261       .  A
C332        O333   1.266       .  A
C332        C388   1.435       .  S
O333       Al335   1.928       .  S
O334        C336   1.256       .  A
O334       Al335   1.896       .  S
Al335       O343   1.905       .  S
Al335       O345   1.926       .  S
Al335       O344   1.791       .  S
C336        O349   1.258       .  A
C336        C486   1.440       .  S
O337        C347   1.258       .  A
O337       Al339   1.905       .  S
O338        C351   1.263       .  A
O338       Al348   1.905       .  S
Al339       O352   1.919       .  S
Al339       O349   1.913       .  S
Al339       O344   1.789       .  S
O340        C347   1.259       .  A
O340       Al348   1.917       .  S
O341        C350   1.257       .  A
O341       Al348   1.912       .  S
O342       Al348   1.891       .  S
O343        C350   1.256       .  A
O344       Al348   1.792       .  S
O345        C346   1.263       .  A
C346        C362   1.436       .  S
C347        C376   1.439       .  S
C350        C754   1.441       .  S
C351        O352   1.264       .  A
C351        C474   1.435       .  S
C353        C361   1.442       .  S
C353        C354   1.402       .  A
C353        C358   1.402       .  A
C354        C355   1.401   1_655  A
C354        H363   1.084       .  S
C355        C356   1.403       .  A
C355        H364   1.083       .  S
C356        C359   1.443       .  S
C356        C357   1.401   1_455  A
C357        C358   1.399       .  A
C357        H365   1.084       .  S
C358        H366   1.083       .  S
C359        C360   1.207       .  T
C361        C362   1.207       .  T
C367        C375   1.444       .  S
C367        C368   1.402       .  A
C367        C372   1.402       .  A
C368        C369   1.400       .  A
C368        H377   1.083       .  S
C369        C370   1.401       .  A
C369        H378   1.084       .  S
C370        C373   1.444       .  S
C370        C371   1.403       .  A
C371        C372   1.402       .  A
C371        H379   1.083       .  S
C372        H380   1.084       .  S
C373        C374   1.208       .  T
C375        C376   1.208       .  T
C381        C389   1.441       .  S
C381        C382   1.402       .  A
C381        C386   1.402       .  A
C382        C383   1.399       .  A
C382        H391   1.083       .  S
C383        C384   1.401       .  A
C383        H392   1.084       .  S
C384        C387   1.440       .  S
C384        C385   1.402       .  A
C385        C386   1.400       .  A
C385        H393   1.083       .  S
C386        H394   1.083       .  S
C387        C388   1.206       .  T
C389        C390   1.206       .  T
C395        C403   1.441       .  S
C395        C396   1.401       .  A
C395        C400   1.402       .  A
C396        C397   1.399       .  A
C396        H405   1.084       .  S
C397        C398   1.402       .  A
C397        H406   1.083       .  S
C398        C401   1.441       .  S
C398        C399   1.401       .  A
C399        C400   1.400       .  A
C399        H407   1.084       .  S
C400        H408   1.083       .  S
C401        C402   1.207       .  T
C403        C404   1.207       .  T
C409        C417   1.442   1_565  S
C409        C410   1.401       .  A
C409        C414   1.403       .  A
C410        C411   1.399       .  A
C410        H419   1.083       .  S
C411        C412   1.402       .  A
C411        H420   1.083       .  S
C412        C415   1.442       .  S
C412        C413   1.402       .  A
C413        C414   1.401       .  A
C413        H421   1.084       .  S
C414        H422   1.083   1_565  S
C415        C416   1.207       .  T
C417        C418   1.207       .  T
C423        C431   1.447       .  S
C423        C424   1.402   1_545  A
C423        C428   1.403   1_455  A
C424        C425   1.401       .  A
C424        H433   1.083       .  S
C425        C426   1.402   1_455  A
C425        H434   1.084       .  S
C426        C429   1.448       .  S
C426        C427   1.403   1_565  A
C427        C428   1.403       .  A
C427        H435   1.083       .  S
C428        H436   1.084       .  S
C429        C430   1.211       .  T
C431        C432   1.210       .  T
C437        C445   1.442       .  S
C437        C438   1.402       .  A
C437        C442   1.402       .  A
C438        C439   1.401       .  A
C438        H447   1.083       .  S
C439        C440   1.403       .  A
C439        H448   1.083   1_455  S
C440        C443   1.442   1_455  S
C440        C441   1.401       .  A
C441        C442   1.399       .  A
C441        H449   1.083       .  S
C442        H450   1.084       .  S
C443        C444   1.207       .  T
C445        C446   1.207       .  T
C451        C459   1.442       .  S
C451        C452   1.402       .  A
C451        C456   1.401       .  A
C452        C453   1.402       .  A
C452        H461   1.083       .  S
C453        C454   1.403       .  A
C453        H462   1.084       .  S
C454        C457   1.442       .  S
C454        C455   1.400       .  A
C455        C456   1.397       .  A
C455        H463   1.083       .  S
C456        H464   1.084       .  S
C457        C458   1.207       .  T
C459        C460   1.207       .  T
C465        C473   1.441       .  S
C465        C466   1.402       .  A
C465        C470   1.401       .  A
C466        C467   1.400       .  A
C466        H475   1.084       .  S
C467        C468   1.401   1_545  A
C467        H476   1.083       .  S
C468        C471   1.441       .  S
C468        C469   1.402   1_565  A
C469        C470   1.399       .  A
C469        H477   1.084   1_545  S
C470        H478   1.083       .  S
C471        C472   1.207       .  T
C473        C474   1.206       .  T
C479        C487   1.445       .  S
C479        C480   1.402       .  A
C479        C484   1.403       .  A
C480        C481   1.402       .  A
C480        H489   1.083       .  S
C481        C482   1.403       .  A
C481        H490   1.084       .  S
C482        C485   1.445       .  S
C482        C483   1.401       .  A
C483        C484   1.400       .  A
C483        H491   1.083       .  S
C484        H492   1.084       .  S
C485        C486   1.209       .  T
C487        C488   1.209       .  T
C493        C501   1.447       .  S
C493        C494   1.402       .  A
C493        C498   1.403       .  A
C494        C495   1.401       .  A
C494        H503   1.084       .  S
C495        C496   1.402       .  A
C495        H504   1.083       .  S
C496        C499   1.446       .  S
C496        C497   1.403       .  A
C497        C498   1.402       .  A
C497        H505   1.084       .  S
C498        H506   1.083       .  S
C499        C500   1.210       .  T
C501        C502   1.210       .  T
C507        C515   1.439       .  S
C507        C508   1.401       .  A
C507        C512   1.401       .  A
C508        C509   1.400       .  A
C508        H517   1.083       .  S
C509        C510   1.402       .  A
C509        H518   1.083       .  S
C510        C513   1.439       .  S
C510        C511   1.401       .  A
C511        C512   1.398       .  A
C511        H519   1.084       .  S
C512        H520   1.084       .  S
C513        C514   1.205       .  T
C515        C516   1.206       .  T
C521        C529   1.447       .  S
C521        C522   1.402       .  A
C521        C526   1.403       .  A
C522        C523   1.400       .  A
C522        H531   1.084       .  S
C523        C524   1.402       .  A
C523        H532   1.083       .  S
C524        C527   1.447   1_565  S
C524        C525   1.404       .  A
C525        C526   1.404       .  A
C525        H533   1.084   1_565  S
C526        H534   1.083       .  S
C527        C528   1.210       .  T
C529        C530   1.210       .  T
C535        C543   1.447       .  S
C535        C536   1.403       .  A
C535        C540   1.402       .  A
C536        C537   1.402       .  A
C536        H545   1.084       .  S
C537        C538   1.403       .  A
C537        H546   1.083       .  S
C538        C541   1.447       .  S
C538        C539   1.402       .  A
C539        C540   1.401       .  A
C539        H547   1.084       .  S
C540        H548   1.083       .  S
C541        C542   1.210       .  T
C543        C544   1.210       .  T
C549        C557   1.445       .  S
C549        C550   1.402       .  A
C549        C554   1.402   1_545  A
C550        C551   1.402       .  A
C550        H559   1.084       .  S
C551        C552   1.403   1_545  A
C551        H560   1.083       .  S
C552        C555   1.445       .  S
C552        C553   1.402       .  A
C553        C554   1.400       .  A
C553        H561   1.084       .  S
C554        H562   1.083       .  S
C555        C556   1.209       .  T
C557        C558   1.209       .  T
C563        C571   1.443       .  S
C563        C564   1.401       .  A
C563        C568   1.402       .  A
C564        C565   1.401       .  A
C564        H573   1.084       .  S
C565        C566   1.403       .  A
C565        H574   1.083       .  S
C566        C569   1.442       .  S
C566        C567   1.401       .  A
C567        C568   1.400       .  A
C567        H575   1.084       .  S
C568        H576   1.083       .  S
C569        C570   1.207       .  T
C571        C572   1.208       .  T
C577        C585   1.443       .  S
C577        C578   1.402   1_455  A
C577        C582   1.402       .  A
C578        C579   1.401       .  A
C578        H587   1.084       .  S
C579        C580   1.403       .  A
C579        H588   1.083       .  S
C580        C583   1.443       .  S
C580        C581   1.401       .  A
C581        C582   1.399   1_655  A
C581        H589   1.084       .  S
C582        H590   1.083       .  S
C583        C584   1.208       .  T
C585        C586   1.208       .  T
C591        C599   1.444       .  S
C591        C592   1.402       .  A
C591        C596   1.402   1_455  A
C592        C593   1.400       .  A
C592        H601   1.083       .  S
C593        C594   1.402   1_455  A
C593        H602   1.084       .  S
C594        C597   1.444       .  S
C594        C595   1.402       .  A
C595        C596   1.401       .  A
C595        H603   1.083       .  S
C596        H604   1.083       .  S
C597        C598   1.208       .  T
C599        C600   1.208       .  T
C605        C613   1.444       .  S
C605        C606   1.401       .  A
C605        C610   1.403       .  A
C606        C607   1.401       .  A
C606        H615   1.083       .  S
C607        C608   1.403       .  A
C607        H616   1.084   1_455  S
C608        C611   1.444   1_455  S
C608        C609   1.402       .  A
C609        C610   1.401       .  A
C609        H617   1.083       .  S
C610        H618   1.084       .  S
C611        C612   1.208       .  T
C613        C614   1.208       .  T
C619        C627   1.445       .  S
C619        C620   1.402       .  A
C619        C624   1.402       .  A
C620        C621   1.400       .  A
C620        H629   1.084       .  S
C621        C622   1.401       .  A
C621        H630   1.083       .  S
C622        C625   1.445       .  S
C622        C623   1.403       .  A
C623        C624   1.402       .  A
C623        H631   1.084       .  S
C624        H632   1.083       .  S
C625        C626   1.209       .  T
C627        C628   1.209       .  T
C633        C641   1.441       .  S
C633        C634   1.400   1_565  A
C633        C638   1.403   1_565  A
C634        C635   1.397       .  A
C634        H643   1.083       .  S
C635        C636   1.401       .  A
C635        H644   1.084       .  S
C636        C639   1.441       .  S
C636        C637   1.402       .  A
C637        C638   1.402       .  A
C637        H645   1.083       .  S
C638        H646   1.083   1_545  S
C639        C640   1.206       .  T
C641        C642   1.207       .  T
C647        C655   1.443       .  S
C647        C648   1.403       .  A
C647        C652   1.401       .  A
C648        C649   1.401       .  A
C648        H657   1.084       .  S
C649        C650   1.402       .  A
C649        H658   1.083       .  S
C650        C653   1.443       .  S
C650        C651   1.402       .  A
C651        C652   1.400       .  A
C651        H659   1.084       .  S
C652        H660   1.083       .  S
C653        C654   1.208       .  T
C655        C656   1.207       .  T
C661        C669   1.445       .  S
C661        C662   1.403   1_655  A
C661        C666   1.402       .  A
C662        C663   1.402       .  A
C662        H671   1.084       .  S
C663        C664   1.403       .  A
C663        H672   1.083       .  S
C664        C667   1.446       .  S
C664        C665   1.402   1_455  A
C665        C666   1.401       .  A
C665        H673   1.084       .  S
C666        H674   1.083       .  S
C667        C668   1.209       .  T
C669        C670   1.209       .  T
C675        C683   1.447       .  S
C675        C676   1.402       .  A
C675        C680   1.403       .  A
C676        C677   1.401       .  A
C676        H685   1.083       .  S
C677        C678   1.402       .  A
C677        H686   1.083       .  S
C678        C681   1.447       .  S
C678        C679   1.403       .  A
C679        C680   1.403       .  A
C679        H687   1.083       .  S
C680        H688   1.083       .  S
C681        C682   1.210       .  T
C683        C684   1.210       .  T
C689        C697   1.441       .  S
C689        C690   1.403       .  A
C689        C694   1.401       .  A
C690        C691   1.400       .  A
C690        H699   1.083       .  S
C691        C692   1.401       .  A
C691        H700   1.084       .  S
C692        C695   1.441   1_455  S
C692        C693   1.402       .  A
C693        C694   1.399       .  A
C693        H701   1.083   1_455  S
C694        H702   1.084       .  S
C695        C696   1.206   1_554  T
C697        C698   1.206       .  T
C703        C711   1.444   1_556  S
C703        C704   1.402       .  A
C703        C708   1.402       .  A
C704        C705   1.402       .  A
C704        H713   1.083       .  S
C705        C706   1.403       .  A
C705        H714   1.084       .  S
C706        C709   1.444       .  S
C706        C707   1.401       .  A
C707        C708   1.399       .  A
C707        H715   1.083       .  S
C708        H716   1.084   1_556  S
C709        C710   1.208       .  T
C711        C712   1.208       .  T
C717        C725   1.441       .  S
C717        C718   1.402       .  A
C717        C722   1.402       .  A
C718        C719   1.399       .  A
C718        H727   1.084       .  S
C719        C720   1.401       .  A
C719        H728   1.083       .  S
C720        C723   1.441       .  S
C720        C721   1.402       .  A
C721        C722   1.400       .  A
C721        H729   1.084       .  S
C722        H730   1.083       .  S
C723        C724   1.206       .  T
C725        C726   1.207   1_554  T
C731        C739   1.444       .  S
C731        C732   1.402       .  A
C731        C736   1.402       .  A
C732        C733   1.402   1_545  A
C732        H741   1.083       .  S
C733        C734   1.403       .  A
C733        H742   1.083       .  S
C734        C737   1.444   1_556  S
C734        C735   1.401   1_565  A
C735        C736   1.399       .  A
C735        H743   1.083   1_556  S
C736        H744   1.084       .  S
C737        C738   1.208       .  T
C739        C740   1.208       .  T
C745        C753   1.446       .  S
C745        C746   1.402       .  A
C745        C750   1.403       .  A
C746        C747   1.401       .  A
C746        H755   1.083       .  S
C747        C748   1.402       .  A
C747        H756   1.083       .  S
C748        C751   1.446       .  S
C748        C749   1.403       .  A
C749        C750   1.402       .  A
C749        H757   1.083       .  S
C750        H758   1.083       .  S
C751        C752   1.210       .  T
C753        C754   1.210       .  T
C759        C767   1.444       .  S
C759        C760   1.402   1_565  A
C759        C764   1.403       .  A
C760        C761   1.400       .  A
C760        H769   1.083       .  S
C761        C762   1.402       .  A
C761        H770   1.084       .  S
C762        C765   1.445       .  S
C762        C763   1.403   1_545  A
C763        C764   1.402       .  A
C763        H771   1.083       .  S
C764        H772   1.084       .  S
C765        C766   1.209       .  T
C767        C768   1.208       .  T
C773        C781   1.443       .  S
C773        C774   1.403       .  A
C773        C778   1.401       .  A
C774        C775   1.401       .  A
C774        H783   1.084       .  S
C775        C776   1.402       .  A
C775        H784   1.083       .  S
C776        C779   1.443       .  S
C776        C777   1.402       .  A
C777        C778   1.400       .  A
C777        H785   1.083       .  S
C778        H786   1.083       .  S
C779        C780   1.208   1_556  T
C781        C782   1.208       .  T
C787        C795   1.444       .  S
C787        C788   1.401   1_455  A
C787        C792   1.403   1_455  A
C788        C789   1.401       .  A
C788        H797   1.084       .  S
C789        C790   1.402       .  A
C789        H798   1.083       .  S
C790        C793   1.444       .  S
C790        C791   1.402       .  A
C791        C792   1.400       .  A
C791        H799   1.084       .  S
C792        H800   1.083   1_655  S
C793        C794   1.208       .  T
C795        C796   1.208   1_554  T
C801        C809   1.442       .  S
C801        C802   1.401       .  A
C801        C806   1.403       .  A
C802        C803   1.398       .  A
C802        H811   1.084       .  S
C803        C804   1.401       .  A
C803        H812   1.083   1_556  S
C804        C807   1.442   1_566  S
C804        C805   1.402       .  A
C805        C806   1.401       .  A
C805        H813   1.084       .  S
C806        H814   1.083       .  S
C807        C808   1.207       .  T
C809        C810   1.207       .  T
C815        C823   1.443       .  S
C815        C816   1.402       .  A
C815        C820   1.401       .  A
C816        C817   1.400       .  A
C816        H825   1.084       .  S
C817        C818   1.401       .  A
C817        H826   1.083       .  S
C818        C821   1.442       .  S
C818        C819   1.403       .  A
C819        C820   1.400       .  A
C819        H827   1.084       .  S
C820        H828   1.083       .  S
C821        C822   1.207       .  T
C823        C824   1.208   1_554  T
C829        C837   1.446       .  S
C829        C830   1.403       .  A
C829        C834   1.402       .  A
C830        C831   1.401       .  A
C830        H839   1.083       .  S
C831        C832   1.402       .  A
C831        H840   1.084       .  S
C832        C835   1.446       .  S
C832        C833   1.403       .  A
C833        C834   1.402       .  A
C833        H841   1.083       .  S
C834        H842   1.084       .  S
C835        C836   1.209       .  T
C837        C838   1.210       .  T
C843        C851   1.446       .  S
C843        C844   1.403       .  A
C843        C848   1.402       .  A
C844        C845   1.402       .  A
C844        H853   1.083       .  S
C845        C846   1.402       .  A
C845        H854   1.084       .  S
C846        C849   1.445       .  S
C846        C847   1.402       .  A
C847        C848   1.401       .  A
C847        H855   1.083       .  S
C848        H856   1.084       .  S
C849        C850   1.209       .  T
C851        C852   1.209       .  T
C857        C865   1.448       .  S
C857        C858   1.402       .  A
C857        C862   1.403       .  A
C858        C859   1.401       .  A
C858        H867   1.083       .  S
C859        C860   1.402       .  A
C859        H868   1.084       .  S
C860        C863   1.447       .  S
C860        C861   1.403       .  A
C861        C862   1.403       .  A
C861        H869   1.083       .  S
C862        H870   1.083       .  S
C863        C864   1.210       .  T
C865        C866   1.211       .  T
C871        C879   1.443       .  S
C871        C872   1.401       .  A
C871        C876   1.402       .  A
C872        C873   1.400       .  A
C872        H881   1.083       .  S
C873        C874   1.402       .  A
C873        H882   1.084       .  S
C874        C877   1.443       .  S
C874        C875   1.402       .  A
C875        C876   1.401       .  A
C875        H883   1.083       .  S
C876        H884   1.083       .  S
C877        C878   1.208       .  T
C879        C880   1.208       .  T
C885        C893   1.440       .  S
C885        C886   1.402       .  A
C885        C890   1.401   1_455  A
C886        C887   1.399   1_455  A
C886        H895   1.083       .  S
C887        C888   1.401       .  A
C887        H896   1.084       .  S
C888        C891   1.440       .  S
C888        C889   1.402       .  A
C889        C890   1.399       .  A
C889        H897   1.083       .  S
C890        H898   1.084       .  S
C891        C892   1.206       .  T
C893        C894   1.206       .  T
C899        C907   1.440       .  S
C899        C900   1.402       .  A
C899        C904   1.401       .  A
C900        C901   1.398       .  A
C900        H909   1.083       .  S
C901        C902   1.400       .  A
C901        H910   1.084       .  S
C902        C905   1.440       .  S
C902        C903   1.402       .  A
C903        C904   1.400       .  A
C903        H911   1.083       .  S
C904        H912   1.084       .  S
C905        C906   1.206       .  T
C907        C908   1.206       .  T
C913        C921   1.441       .  S
C913        C914   1.402       .  A
C913        C918   1.401       .  A
C914        C915   1.400       .  A
C914        H923   1.084       .  S
C915        C916   1.401       .  A
C915        H924   1.083       .  S
C916        C919   1.441       .  S
C916        C917   1.402       .  A
C917        C918   1.399       .  A
C917        H925   1.084       .  S
C918        H926   1.083       .  S
C919        C920   1.207       .  T
C921        C922   1.206       .  T
C927        C935   1.445   1_545  S
C927        C928   1.402       .  A
C927        C932   1.402       .  A
C928        C929   1.401       .  A
C928        H937   1.084   1_545  S
C929        C930   1.402       .  A
C929        H938   1.083       .  S
C930        C933   1.444       .  S
C930        C931   1.403       .  A
C931        C932   1.401       .  A
C931        H939   1.084       .  S
C932        H940   1.083       .  S
C933        C934   1.208       .  T
C935        C936   1.209       .  T
C941        C949   1.448       .  S
C941        C942   1.402       .  A
C941        C946   1.404       .  A
C942        C943   1.400       .  A
C942        H951   1.083       .  S
C943        C944   1.402       .  A
C943        H952   1.084       .  S
C944        C947   1.447       .  S
C944        C945   1.403       .  A
C945        C946   1.404       .  A
C945        H953   1.083       .  S
C946        H954   1.083       .  S
C947        C948   1.210       .  T
C949        C950   1.211       .  T
C955        C963   1.444       .  S
C955        C956   1.402   1_565  A
C955        C960   1.402   1_455  A
C956        C957   1.401       .  A
C956        H965   1.083       .  S
C957        C958   1.402   1_455  A
C957        H966   1.084       .  S
C958        C961   1.444       .  S
C958        C959   1.402   1_545  A
C959        C960   1.401       .  A
C959        H967   1.083       .  S
C960        H968   1.084       .  S
C961        C962   1.208       .  T
C963        C964   1.208       .  T
C969        C977   1.443   1_565  S
C969        C970   1.401       .  A
C969        C974   1.403       .  A
C970        C971   1.400       .  A
C970        H979   1.084       .  S
C971        C972   1.403       .  A
C971        H980   1.083       .  S
C972        C975   1.443       .  S
C972        C973   1.401       .  A
C973        C974   1.401       .  A
C973        H981   1.084       .  S
C974        H982   1.083   1_565  S
C975        C976   1.208       .  T
C977        C978   1.208       .  T
C983        C991   1.442       .  S
C983        C984   1.403       .  A
C983        C988   1.401       .  A
C984        C985   1.399       .  A
C984        H993   1.084       .  S
C985        C986   1.401       .  A
C985        H994   1.084       .  S
C986        C989   1.442       .  S
C986        C987   1.402       .  A
C987        C988   1.400       .  A
C987        H995   1.083       .  S
C988        H996   1.083       .  S
C989        C990   1.207       .  T
C991        C992   1.207       .  T
C997       C1005   1.443       .  S
C997        C998   1.402       .  A
C997       C1002   1.402       .  A
C998        C999   1.398       .  A
C998       H1007   1.083       .  S
C999       C1000   1.401       .  A
C999       H1008   1.084       .  S
C1000      C1003   1.443   1_455  S
C1000      C1001   1.403       .  A
C1001      C1002   1.402       .  A
C1001      H1009   1.083   1_455  S
C1002      H1010   1.084       .  S
C1003      C1004   1.208       .  T
C1005      C1006   1.208       .  T
C1011      C1019   1.441       .  S
C1011      C1012   1.402       .  A
C1011      C1016   1.401       .  A
C1012      C1013   1.402       .  A
C1012      H1021   1.083       .  S
C1013      C1014   1.403       .  A
C1013      H1022   1.084       .  S
C1014      C1017   1.441       .  S
C1014      C1015   1.400       .  A
C1015      C1016   1.397       .  A
C1015      H1023   1.083       .  S
C1016      H1024   1.084       .  S
C1017      C1018   1.207       .  T
C1019      C1020   1.206       .  T
