geometry optimzed in LAMMPS
_audit_creation_date              2020-12-01 
_audit_creation_method            'lammps2cif' 
_symmetry_space_group_name_H-M    'P1' 
_symmetry_Int_Tables_number       1 
_symmetry_cell_setting            triclinic 
loop_ 
_symmetry_equiv_pos_as_xyz 
  x,y,z 
_cell_length_a                    80.66605358 
_cell_length_b                    80.57262733135711 
_cell_length_c                    50.12064737150922 
_cell_angle_alpha                 89.83846649266857 
_cell_angle_beta                  90.02237318762761 
_cell_angle_gamma                 119.98210120808655 
loop_ 
_atom_site_label 
_atom_site_type_symbol 
_atom_site_fract_x 
_atom_site_fract_y 
_atom_site_fract_z 
_atom_site_charge 
Zr1        Zr  0.84467396  0.25058662  0.28019226     2.17500
O2          O  0.84859303  0.22291357  0.28902436    -0.52000
O3          O  0.81080413  0.23063794  0.29200385    -0.75200
O4          O  0.85234232  0.24785188  0.32647226    -0.82000
O5          O  0.84442631  0.24244261  0.20512237    -0.83700
O6          O  0.86472281  0.27673814  0.34707173    -0.79300
O7          O  0.83941816  0.22726556  0.24508550    -0.91000
O8          O  0.79575858  0.24732586  0.28239474    -0.76900
O9          O  0.83548932  0.27124852  0.30145111    -0.86400
O10         O  0.82865967  0.25847561  0.24694994    -0.86100
O11         O  0.87417835  0.27839004  0.29416102    -0.72900
O12         O  0.86758043  0.26587854  0.24485725    -0.85000
Zr13       Zr  0.87156342  0.32276797  0.24643029     2.26400
Zr14       Zr  0.86461629  0.29932973  0.31477243     2.06300
Zr15       Zr  0.85170998  0.27470704  0.21251080     2.10000
Zr16       Zr  0.81967947  0.27916747  0.26799108     1.78800
O17         O  0.87382643  0.27593474  0.17841278    -0.93800
O18         O  0.80632721  0.28463303  0.30842878    -0.41600
O19         O  0.84211174  0.29533495  0.23256913    -0.78200
O20         O  0.84827962  0.30732616  0.28160387    -0.96900
O21         O  0.88750384  0.31474049  0.27969936    -0.90200
O22         O  0.88089777  0.30226807  0.22553868    -0.93100
C23         C  0.79572537  0.23222396  0.29059059     1.00700
C24         C  0.84036517  0.22772306  0.21940948     1.13600
C25         C  0.86005566  0.25897602  0.34656213     1.04400
O26         O  0.84246205  0.29684702  0.34964195    -0.95200
O27         O  0.87167376  0.33248611  0.32191339    -0.91000
O28         O  0.87564448  0.34573796  0.28065556    -0.84100
C29         C  0.87506224  0.34655908  0.30619617     1.11000
O30         O  0.90614244  0.26999548  0.26644846    -0.97200
Zr31       Zr  0.89636542  0.29378775  0.25872946     1.88900
O32         O  0.90632978  0.34429733  0.24364421    -0.73900
O33         O  0.89281030  0.31584290  0.34306797    -0.53100
O34         O  0.92093969  0.30332756  0.29292289    -0.97800
O35         O  0.91202451  0.29030461  0.21923029    -0.55000
O36         O  0.92067070  0.32636103  0.24924869    -0.74400
C37         C  0.92115968  0.34229803  0.24530316     0.98000
O38         O  0.86502193  0.34734010  0.22952316    -0.63200
O39         O  0.82403118  0.26072781  0.18297880    -0.58000
O40         O  0.86809413  0.32677810  0.19844660    -0.94700
O41         O  0.85353081  0.29718169  0.17973493    -0.93100
O42         O  0.79399002  0.26667645  0.23518702    -0.93500
O43         O  0.80791384  0.30104218  0.25776951    -0.92200
C44         C  0.86047881  0.31531046  0.17855380     1.16800
H45         H  0.81761875  0.24711968  0.24007647     0.32800
H46         H  0.84417497  0.31578367  0.28879576     0.43600
H47         H  0.88911828  0.30853413  0.21041507     0.37100
H48         H  0.88121618  0.27495260  0.30631514     0.33600
H49         H  0.79322173  0.28156510  0.30343203     0.25400
H50         H  0.88775307  0.31374745  0.36151818     0.31300
H51         H  0.92127063  0.31442545  0.30187216     0.37200
H52         H  0.78231379  0.26356750  0.24550566     0.31700
H53         H  0.81584795  0.24741642  0.18938395     0.30600
H54         H  0.86685115  0.27381582  0.16136593     0.32300
H55         H  0.91341960  0.30040147  0.20662671     0.31200
H56         H  0.81958828  0.31356656  0.25456520     0.35200
H57         H  0.85540570  0.34731788  0.24182167     0.28000
H58         H  0.83959639  0.21567395  0.30367360     0.32200
H59         H  0.91987685  0.27634272  0.26161951     0.35000
H60         H  0.81683530  0.26728032  0.18777450     0.27700
H61         H  0.87687494  0.35970107  0.23271731     0.40500
H62         H  0.84915341  0.29766532  0.36657491     0.30600
H63         H  0.80435416  0.27415835  0.32072746     0.38200
H64         H  0.90231214  0.27813627  0.21099185     0.30100
H65         H  0.89923305  0.30812964  0.34185099     0.30100
H66         H  0.86154101  0.22808744  0.29677989     0.30400
Zr67       Zr  0.90494177  0.19547344  0.55481459     2.17500
O68         O  0.87789662  0.20038802  0.54637302    -0.52000
O69         O  0.88536429  0.16159969  0.54329753    -0.75200
O70         O  0.90191804  0.20176908  0.50803852    -0.82000
O71         O  0.89644152  0.19666664  0.62922101    -0.83700
O72         O  0.93120329  0.21572850  0.48823538    -0.79300
O73         O  0.88128150  0.19039026  0.58926171    -0.91000
O74         O  0.90401144  0.14804931  0.54774441    -0.76900
O75         O  0.92613218  0.18657926  0.53438094    -0.86400
O76         O  0.91267347  0.17973146  0.58874756    -0.86100
O77         O  0.93236571  0.22516521  0.54051265    -0.72900
O78         O  0.91979903  0.21866431  0.58967351    -0.85000
Zr79       Zr  0.97696762  0.22369318  0.58980447     2.26400
Zr80       Zr  0.95383316  0.21598502  0.52088930     2.06300
Zr81       Zr  0.92848592  0.20319474  0.62276209     2.10000
Zr82       Zr  0.93400359  0.17121906  0.56866189     1.78800
O83         O  0.92900843  0.22499222  0.65673005    -0.93800
O84         O  0.94414115  0.15718731  0.53381342    -0.41600
O85         O  0.94975560  0.19397125  0.60377920    -0.78200
O86         O  0.96197803  0.20015051  0.55486060    -0.96900
O87         O  0.96887420  0.23904338  0.55574235    -0.90200
O88         O  0.95580713  0.23257499  0.60960344    -0.93100
C89         C  0.88824441  0.14733062  0.54131418     1.00700
C90         C  0.88172384  0.19213077  0.61482377     1.13600
C91         C  0.91318814  0.21002165  0.48819013     1.04400
O92         O  0.95319770  0.19440599  0.48640294    -0.95200
O93         O  0.98708433  0.22401166  0.51441806    -0.91000
O94         O  0.00053170  0.22924395  0.55564710    -0.84100
C95         C  0.00130634  0.22841009  0.53013574     1.11000
O96         O  0.92442076  0.25782153  0.56485511    -0.97200
Zr97       Zr  0.94744491  0.24760135  0.57560393     1.88900
O98         O  0.99756722  0.25854442  0.59348137    -0.73900
O99         O  0.97134943  0.24427640  0.49271854    -0.53100
O100        O  0.95965889  0.27142692  0.53997979    -0.97800
O101        O  0.94193103  0.26292525  0.61376095    -0.55000
O102        O  0.97897899  0.27218800  0.58846707    -0.74400
C103        C  0.99506102  0.27310286  0.59264286     0.98000
O104        O  0.00217311  0.21800674  0.60626895    -0.63200
O105        O  0.91371084  0.17592566  0.65324144    -0.58000
O106        O  0.98086802  0.22068244  0.63803530    -0.94700
O107        O  0.95100210  0.20599595  0.65592127    -0.93100
O108        O  0.91840544  0.14664627  0.60285486    -0.93500
O109        O  0.95386983  0.15818936  0.58389818    -0.92200
C110        C  0.96909512  0.21307009  0.65769788     1.16800
H111        H  0.90134486  0.16864935  0.59554615     0.32800
H112        H  0.97075489  0.19635002  0.54801312     0.43600
H113        H  0.96169389  0.24093718  0.62466195     0.37100
H114        H  0.92873689  0.23192572  0.52809513     0.33600
H115        H  0.93480969  0.14327947  0.53461895     0.25400
H116        H  0.97374252  0.23937442  0.47591663     0.31300
H117        H  0.96852761  0.26870998  0.52976501     0.37200
H118        H  0.91328363  0.13434938  0.59318898     0.31700
H119        H  0.90002575  0.16866957  0.64820891     0.30600
H120        H  0.92230137  0.21666412  0.67222163     0.32300
H121        H  0.95241080  0.26569602  0.62643565     0.31200
H122        H  0.96630206  0.16959955  0.58836990     0.35200
H123        H  0.00248867  0.20864644  0.59381943     0.28000
H124        H  0.87014554  0.19105821  0.53238113     0.32200
H125        H  0.93103868  0.27172469  0.56870362     0.35000
H126        H  0.91886979  0.16760287  0.64771108     0.27700
H127        H  0.01431439  0.23011985  0.60308496     0.40500
H128        H  0.94219885  0.19173053  0.47482443     0.30600
H129        H  0.94115507  0.16152076  0.51691594     0.38200
H130        H  0.93030403  0.25258415  0.62242900     0.30100
H131        H  0.96205098  0.24837460  0.48778576     0.30100
H132        H  0.88337717  0.21313004  0.53773490     0.30400
Zr133      Zr  0.92950574  0.42189992  0.88659069     2.17500
O134        O  0.96043077  0.45054816  0.87839669    -0.52000
O135        O  0.91566445  0.44165290  0.87354834    -0.75200
O136        O  0.94043426  0.42464341  0.84078818    -0.82000
O137        O  0.93863483  0.43014519  0.96141582    -0.83700
O138        O  0.92436942  0.39570472  0.82024074    -0.79300
O139        O  0.94921171  0.44470777  0.92123595    -0.91000
O140        O  0.88351364  0.42457061  0.87955052    -0.76900
O141        O  0.89992859  0.40110897  0.86486280    -0.86400
O142        O  0.90512393  0.41488342  0.91866397    -0.86100
O143        O  0.93157127  0.39407589  0.87387726    -0.72900
O144        O  0.93624127  0.40676271  0.92291257    -0.85000
Zr145      Zr  0.88361420  0.35014508  0.92133978     2.26400
Zr146      Zr  0.90136335  0.37302297  0.85272711     2.06300
Zr147      Zr  0.91125131  0.39900679  0.95432348     2.10000
Zr148      Zr  0.87569993  0.39358855  0.89745777     1.78800
O149        O  0.92942422  0.40006132  0.99374424    -0.93800
O150        O  0.85539682  0.38499961  0.85802869    -0.41600
O151        O  0.88135815  0.37773550  0.93389039    -0.78200
O152        O  0.87653982  0.36540622  0.88507330    -0.96900
O153        O  0.90797412  0.35776157  0.88896935    -0.90200
O154        O  0.91305888  0.37113578  0.94290652    -0.93100
C155        C  0.89889937  0.43981400  0.87270204     1.00700
C156        C  0.95010839  0.44436679  0.94686409     1.13600
C157        C  0.93713800  0.41364332  0.82063338     1.04400
O158        O  0.88200547  0.37443966  0.81644613    -0.95200
O159        O  0.87534878  0.33977047  0.84643719    -0.91000
O160        O  0.86506146  0.32655839  0.88755206    -0.84100
C161        C  0.86422520  0.32577992  0.86195585     1.11000
O162        O  0.97137176  0.40090375  0.90390036    -0.97200
Zr163      Zr  0.93732792  0.37871369  0.91062593     1.88900
O164        O  0.89638340  0.32815914  0.92407919    -0.73900
O165        O  0.91286760  0.35555734  0.82614278    -0.53100
O166        O  0.95166608  0.36798371  0.87700575    -0.97800
O167        O  0.95520327  0.38307269  0.95177732    -0.55000
O168        O  0.92879653  0.34617311  0.92130322    -0.74400
C169        C  0.91323985  0.33014320  0.92381524     0.98000
O170        O  0.85161240  0.32728207  0.93746545    -0.63200
O171        O  0.89763598  0.41615094  0.97706343    -0.58000
O172        O  0.87703530  0.34622448  0.96945975    -0.94700
O173        O  0.89022199  0.37624111  0.98669229    -0.93100
O174        O  0.86401954  0.40769376  0.93012961    -0.93500
O175        O  0.84202672  0.37375411  0.90918948    -0.92200
C176        C  0.88014900  0.35800002  0.98872908     1.16800
H177        H  0.90543065  0.42639538  0.92476858     0.32800
H178        H  0.86407486  0.35687129  0.87766754     0.43600
H179        H  0.91496187  0.36520974  0.95850353     0.37100
H180        H  0.94216260  0.39744787  0.86200701     0.33600
H181        H  0.84730226  0.39087841  0.86085345     0.25400
H182        H  0.90869760  0.35605234  0.80771664     0.31300
H183        H  0.94086890  0.35602889  0.86978928     0.37200
H184        H  0.86035412  0.41582494  0.91972680     0.31700
H185        H  0.88363334  0.40789106  0.97488874     0.30600
H186        H  0.92672581  0.40746752  0.00705141     0.32300
H187        H  0.94856661  0.37052057  0.96100810     0.31200
H188        H  0.84206715  0.36777247  0.92645961     0.35200
H189        H  0.84269766  0.32783465  0.92438005     0.28000
H190        H  0.95838627  0.45741977  0.86349135     0.32200
H191        H  0.97794832  0.39397696  0.90999119     0.35000
H192        H  0.89991200  0.41515595  0.99626122     0.27700
H193        H  0.85026815  0.31447050  0.93505848     0.40500
H194        H  0.86866276  0.36474909  0.82103615     0.30600
H195        H  0.86416538  0.39262508  0.84338586     0.38200
H196        H  0.95249140  0.39159666  0.96284470     0.30100
H197        H  0.92696067  0.36386702  0.82573955     0.30100
H198        H  0.96882384  0.44595855  0.87107170     0.30400
Zr199      Zr  0.04781093  0.48562332  0.61205181     2.17500
O200        O  0.01717419  0.48401989  0.62002307    -0.52000
O201        O  0.06115663  0.51934376  0.62389891    -0.75200
O202        O  0.03587683  0.47651903  0.65773509    -0.82000
O203        O  0.04287066  0.48766002  0.53613856    -0.83700
O204        O  0.05211602  0.46418857  0.67928525    -0.79300
O205        O  0.02814146  0.48670457  0.57519620    -0.91000
O206        O  0.09325884  0.53510738  0.61668295    -0.76900
O207        O  0.07672710  0.49388398  0.63537459    -0.86400
O208        O  0.07331294  0.50366091  0.58149138    -0.86100
O209        O  0.04542077  0.45557826  0.62482395    -0.72900
O210        O  0.04267230  0.46472948  0.57511467    -0.85000
Zr211      Zr  0.09477794  0.46030556  0.57987455     2.26400
Zr212      Zr  0.07498564  0.46415785  0.64738129     2.06300
Zr213      Zr  0.06892696  0.48253458  0.54553113     2.10000
Zr214      Zr  0.10204491  0.51137255  0.60445513     1.78800
O215        O  0.05129911  0.46708350  0.50502208    -0.93800
O216        O  0.11890130  0.52361228  0.64653450    -0.41600
O217        O  0.09814562  0.49071869  0.56763317    -0.78200
O218        O  0.10080739  0.48199276  0.61660339    -0.96900
O219        O  0.06939930  0.44300766  0.61075094    -0.90200
O220        O  0.06602287  0.45240338  0.55689900    -0.93100
C221        C  0.07766648  0.53462219  0.62330325     1.00700
C222        C  0.02937590  0.48758542  0.54951507     1.13600
C223        C  0.03901694  0.46884962  0.67823388     1.04400
O224        O  0.09330515  0.48331156  0.68539831    -0.95200
O225        O  0.10000516  0.45582851  0.65557024    -0.91000
O226        O  0.11145672  0.45385397  0.61496646    -0.84100
C227        C  0.11130435  0.45296583  0.64053876     1.11000
O228        O  0.00679286  0.42461136  0.59309338    -0.97200
Zr229      Zr  0.04068576  0.43522226  0.58763848     1.88900
O230        O  0.08166206  0.42566719  0.57590260    -0.73900
O231        O  0.06035780  0.43370832  0.67128144    -0.53100
O232        O  0.02519792  0.40939293  0.62017692    -0.97800
O233        O  0.02358488  0.42179894  0.54599145    -0.55000
O234        O  0.04920920  0.41136175  0.57650639    -0.74400
C235        C  0.06479499  0.41088560  0.57486307     0.98000
O236        O  0.12689770  0.46799571  0.56632268    -0.63200
O237        O  0.08586883  0.51379087  0.52387361    -0.58000
O238        O  0.10222954  0.46298839  0.53186241    -0.94700
O239        O  0.08858405  0.47890292  0.51299542    -0.93100
O240        O  0.11734174  0.53610896  0.57037846    -0.93500
O241        O  0.13658601  0.52545708  0.60061415    -0.92200
C242        C  0.09869340  0.47077162  0.51175421     1.16800
H243        H  0.07314761  0.51487663  0.57498885     0.32800
H244        H  0.11294561  0.48558346  0.62485741     0.43600
H245        H  0.06443428  0.44480321  0.54122771     0.37100
H246        H  0.03456718  0.44819321  0.63622530     0.33600
H247        H  0.12501999  0.53771860  0.64496075     0.25400
H248        H  0.06449177  0.43718921  0.69002850     0.31300
H249        H  0.03585772  0.40907455  0.62949492     0.37200
H250        H  0.10904988  0.54185527  0.56847267     0.31700
H251        H  0.09937487  0.51685951  0.52313495     0.30600
H252        H  0.05551362  0.47752732  0.49169836     0.32300
H253        H  0.03088933  0.41668609  0.53665323     0.31200
H254        H  0.13840110  0.51479965  0.59447965     0.35200
H255        H  0.13563701  0.47732436  0.57964720     0.28000
H256        H  0.01938630  0.49297651  0.63487220     0.32200
H257        H  0.99986691  0.41110417  0.58710418     0.35000
H258        H  0.08153363  0.51130994  0.50508226     0.27700
H259        H  0.12754968  0.45620210  0.56955707     0.40500
H260        H  0.10687085  0.48865764  0.68016629     0.30600
H261        H  0.10870028  0.52009206  0.66000717     0.38200
H262        H  0.02582301  0.43307046  0.53525995     0.30100
H263        H  0.04648203  0.42925478  0.67151380     0.30100
H264        H  0.00852330  0.47107659  0.62738285     0.30400
Zr265      Zr  0.07294324  0.27461412  0.95146537     2.17500
O266        O  0.10200565  0.30495951  0.96076053    -0.52000
O267        O  0.09213170  0.26013942  0.96405353    -0.75200
O268        O  0.07508326  0.28549957  0.99727267    -0.82000
O269        O  0.08210859  0.28152620  0.87629384    -0.83700
O270        O  0.04618585  0.26991274  0.01806496    -0.79300
O271        O  0.09584910  0.29398557  0.91627906    -0.91000
O272        O  0.07373577  0.22784758  0.96113401    -0.76900
O273        O  0.05117494  0.24547251  0.97381332    -0.86400
O274        O  0.06532644  0.24955179  0.92037181    -0.86100
O275        O  0.04568534  0.27778469  0.96364948    -0.72900
O276        O  0.05856460  0.28152797  0.91440230    -0.85000
Zr277      Zr  0.00112393  0.23007904  0.91648822     2.26400
Zr278      Zr  0.02351964  0.24793189  0.98510943     2.06300
Zr279      Zr  0.05011316  0.25580004  0.88402644     2.10000
Zr280      Zr  0.04322304  0.22063671  0.94217700     1.78800
O281        O  0.05078281  0.27389452  0.84462872    -0.93800
O282        O  0.03508972  0.20000888  0.98131151    -0.41600
O283        O  0.02799836  0.22633550  0.90499325    -0.78200
O284        O  0.01541389  0.22257791  0.95361528    -0.96900
O285        O  0.00920261  0.25491565  0.94812076    -0.90200
O286        O  0.02308748  0.25918316  0.89476472    -0.93100
C287        C  0.08949658  0.24311492  0.96659207     1.00700
C288        C  0.09600887  0.29375822  0.89055545     1.13600
C289        C  0.06412687  0.28250842  0.01746616     1.04400
O290        O  0.02277217  0.22799521  0.02221703    -0.95200
O291        O  0.98968797  0.22337785  0.99156622    -0.91000
O292        O  0.97678461  0.21339509  0.95034554    -0.84100
C293        C  0.97558682  0.21289895  0.97591316     1.11000
O294        O  0.05449413  0.31789795  0.93156854    -0.97200
Zr295      Zr  0.03116537  0.28395556  0.92636812     1.88900
O296        O  0.98042819  0.24413582  0.91177210    -0.73900
O297        O  0.00747930  0.26202093  0.00956646    -0.53100
O298        O  0.02108691  0.29775750  0.96164065    -0.97800
O299        O  0.03615596  0.30346587  0.88664113    -0.55000
O300        O  0.99923153  0.27653164  0.91401737    -0.74400
C301        C  0.98299199  0.26123061  0.91133689     0.98000
O302        O  0.97705522  0.19793099  0.90249786    -0.63200
O303        O  0.06593182  0.24072636  0.86149720    -0.58000
O304        O  0.99752491  0.22379555  0.86816369    -0.94700
O305        O  0.02747124  0.23506044  0.85155153    -0.93100
O306        O  0.05658008  0.20846644  0.90912676    -0.93500
O307        O  0.02266081  0.18687191  0.93168950    -0.92200
C308        C  0.00926413  0.22622312  0.84905747     1.16800
H309        H  0.07662229  0.24935096  0.91448769     0.32800
H310        H  0.00638188  0.21032888  0.96129859     0.43600
H311        H  0.01754966  0.26131848  0.87895619     0.37100
H312        H  0.04929112  0.28851252  0.97534410     0.33600
H313        H  0.04265538  0.19347303  0.97936218     0.25400
H314        H  0.00465507  0.25573540  0.02729816     0.31300
H315        H  0.00818279  0.28740117  0.96690447     0.37200
H316        H  0.06390492  0.20383667  0.91955276     0.31700
H317        H  0.05677465  0.22680698  0.86287444     0.30600
H318        H  0.05684169  0.27008366  0.83057938     0.32300
H319        H  0.02517332  0.29553262  0.87482878     0.31200
H320        H  0.01079421  0.18602468  0.92463771     0.35200
H321        H  0.97688637  0.18920740  0.91659339     0.28000
H322        H  0.10852405  0.30229573  0.97551239     0.32200
H323        H  0.04705950  0.32463156  0.93069480     0.35000
H324        H  0.06580489  0.24374855  0.84236302     0.27700
H325        H  0.96459909  0.19747562  0.90415437     0.40500
H326        H  0.01500687  0.21467721  0.01570897     0.30600
H327        H  0.04120669  0.20893480  0.99639020     0.38200
H328        H  0.04729047  0.30393684  0.87758156     0.30100
H329        H  0.01744590  0.27546329  0.01302745     0.30100
H330        H  0.09776034  0.31352940  0.96846625     0.30400
Zr331      Zr  0.13556769  0.39654191  0.21958637     2.17500
O332        O  0.13258812  0.36523393  0.21193224    -0.52000
O333        O  0.16924353  0.41033504  0.20687613    -0.75200
O334        O  0.12682766  0.38505353  0.17390083    -0.82000
O335        O  0.13620076  0.38975049  0.29528536    -0.83700
O336        O  0.11322756  0.40042742  0.15316973    -0.79300
O337        O  0.13907755  0.37780927  0.25565918    -0.91000
O338        O  0.18380298  0.44258546  0.21165902    -0.76900
O339        O  0.14287959  0.42534169  0.19634599    -0.86400
O340        O  0.15328361  0.42196819  0.25014959    -0.86100
O341        O  0.10512794  0.39349139  0.20771412    -0.72900
O342        O  0.11462587  0.39051453  0.25684890    -0.85000
Zr343      Zr  0.10917841  0.44219398  0.25338423     2.26400
Zr344      Zr  0.11277818  0.42295912  0.18523077     2.06300
Zr345      Zr  0.13214995  0.41664778  0.28666609     2.10000
Zr346      Zr  0.16019495  0.45057795  0.22726052     1.78800
O347        O  0.11831667  0.40049920  0.32884764    -0.93800
O348        O  0.17334977  0.46905129  0.18638303    -0.41600
O349        O  0.13979428  0.44589905  0.26486731    -0.78200
O350        O  0.13046228  0.44855714  0.21600715    -0.96900
O351        O  0.09193743  0.41683365  0.22243488    -0.90200
O352        O  0.10183027  0.41333423  0.27593373    -0.93100
C353        C  0.18402763  0.42722756  0.20568078     1.00700
C354        C  0.13839852  0.37774747  0.28134634     1.13600
C355        C  0.11859649  0.38784204  0.15381492     1.04400
O356        O  0.13102824  0.44160199  0.14669447    -0.95200
O357        O  0.10458801  0.44834984  0.17823985    -0.91000
O358        O  0.10211297  0.45912279  0.21915727    -0.84100
C359        C  0.10158498  0.45946685  0.19353038     1.11000
O360        O  0.07291588  0.35396114  0.23895532    -0.97200
Zr361      Zr  0.08480121  0.38809823  0.24527661     1.88900
O362        O  0.07458691  0.42914094  0.25699064    -0.73900
O363        O  0.08224406  0.40785312  0.16179533    -0.53100
O364        O  0.05809833  0.37096761  0.21463856    -0.97800
O365        O  0.07433535  0.37145285  0.28800782    -0.55000
O366        O  0.06084042  0.39665480  0.25651776    -0.74400
C367        C  0.06001503  0.41210599  0.25798106     0.98000
O368        O  0.12082503  0.47533304  0.26676791    -0.63200
O369        O  0.16400575  0.43320615  0.30635087    -0.58000
O370        O  0.10959569  0.44737111  0.30193318    -0.94700
O371        O  0.12771333  0.43573725  0.31949755    -0.93100
O372        O  0.18534512  0.46459111  0.26075388    -0.93500
O373        O  0.17183448  0.48480219  0.23104582    -0.92200
C374        C  0.11830578  0.44459219  0.32155779     1.16800
H375        H  0.16472948  0.42210805  0.25610613     0.32800
H376        H  0.13384847  0.46073792  0.20795601     0.43600
H377        H  0.09420705  0.41140814  0.29170923     0.37100
H378        H  0.09791711  0.38261201  0.19632903     0.33600
H379        H  0.18731554  0.47675263  0.18954725     0.25400
H380        H  0.08567153  0.41073320  0.14270483     0.31300
H381        H  0.05548070  0.38086088  0.20734527     0.37200
H382        H  0.19702619  0.47346182  0.25064730     0.31700
H383        H  0.16623445  0.44614650  0.31066931     0.30600
H384        H  0.12935520  0.40413858  0.34085301     0.32300
H385        H  0.06837489  0.37787006  0.29760356     0.31200
H386        H  0.16777271  0.48638952  0.24904535     0.35200
H387        H  0.13180219  0.47856966  0.27872787     0.28000
H388        H  0.14090868  0.36680981  0.19648522     0.32200
H389        H  0.06073266  0.34721343  0.24902840     0.35000
H390        H  0.16252290  0.42696152  0.32391617     0.27700
H391        H  0.12690341  0.48313254  0.25061668     0.40500
H392        H  0.12154075  0.44249172  0.13513931     0.30600
H393        H  0.17197520  0.45952211  0.17284047     0.38200
H394        H  0.08629795  0.37512181  0.29790717     0.30100
H395        H  0.07735184  0.39391547  0.16348184     0.30100
H396        H  0.11933446  0.35684428  0.20554072     0.30400
Zr397      Zr  0.13695288  0.75830713  0.71683623     2.17500
O398        O  0.13915337  0.78823796  0.70205100    -0.52000
O399        O  0.17011663  0.77564262  0.70235353    -0.75200
O400        O  0.14516889  0.78156413  0.75298648    -0.82000
O401        O  0.11168350  0.73296771  0.65155677    -0.83700
O402        O  0.14695714  0.76792757  0.79172107    -0.79300
O403        O  0.12283394  0.76061268  0.67500205    -0.91000
O404        O  0.18458819  0.75844292  0.71209792    -0.76900
O405        O  0.15312481  0.74886047  0.74761602    -0.86400
O406        O  0.14363318  0.73648156  0.69361748    -0.86100
O407        O  0.11504676  0.74441914  0.75354250    -0.72900
O408        O  0.10652886  0.73210978  0.70390988    -0.85000
Zr409      Zr  0.10670934  0.68541232  0.74949474     2.26400
Zr410      Zr  0.13110272  0.73402800  0.78355298     2.06300
Zr411      Zr  0.11316012  0.70988669  0.68151394     2.10000
Zr412      Zr  0.15912832  0.72656321  0.72496776     1.78800
O413        O  0.08303270  0.69405874  0.65716266    -0.93800
O414        O  0.18405879  0.73424287  0.75806048    -0.41600
O415        O  0.12877154  0.69981129  0.71287553    -0.78200
O416        O  0.13772431  0.71152643  0.76194761    -0.96900
O417        O  0.10053398  0.70775325  0.77192387    -0.90200
O418        O  0.09134998  0.69529179  0.71769325    -0.93100
C419        C  0.18493253  0.77368644  0.70366492     1.00700
C420        C  0.11508201  0.75025502  0.65423110     1.13600
C421        C  0.14902844  0.78225147  0.77800152     1.04400
O422        O  0.15835734  0.74436017  0.81336379    -0.95200
O423        O  0.12463869  0.70971296  0.81624080    -0.91000
O424        O  0.10679111  0.68020377  0.79782446    -0.84100
C425        C  0.11511988  0.69140947  0.81774613     1.11000
O426        O  0.07487872  0.74120446  0.73868119    -0.97200
Zr427      Zr  0.08511354  0.71747089  0.74044375     1.88900
O428        O  0.07206509  0.66524135  0.75520073    -0.73900
O429        O  0.11132920  0.73822602  0.81659789    -0.53100
O430        O  0.07075158  0.71998789  0.78186975    -0.97800
O431        O  0.06170725  0.71130713  0.70555165    -0.55000
O432        O  0.06008315  0.68532736  0.75073681    -0.74400
C433        C  0.05815467  0.66873003  0.75465446     0.98000
O434        O  0.11588694  0.66159982  0.76096016    -0.63200
O435        O  0.13143480  0.71020154  0.64259033    -0.58000
O436        O  0.09754633  0.66143464  0.71469613    -0.94700
O437        O  0.10517115  0.67676356  0.67446117    -0.93100
O438        O  0.16927097  0.72028872  0.68225734    -0.93500
O439        O  0.16989306  0.70333966  0.72944985    -0.92200
C440        C  0.09919425  0.66174345  0.68918731     1.16800
H441        H  0.15146609  0.74238239  0.67804911     0.32800
H442        H  0.14372338  0.70696676  0.77438939     0.43600
H443        H  0.07980339  0.68458017  0.71079217     0.37100
H444        H  0.11247371  0.75368298  0.76188304     0.33600
H445        H  0.19624792  0.74113105  0.74803790     0.25400
H446        H  0.11912166  0.74207289  0.83308439     0.31300
H447        H  0.06965084  0.70943258  0.79328795     0.37200
H448        H  0.18309702  0.72979090  0.68105940     0.31700
H449        H  0.12202173  0.70541533  0.62784086     0.30600
H450        H  0.08666252  0.69320087  0.63856750     0.32300
H451        H  0.04911511  0.70355317  0.71433456     0.31200
H452        H  0.15828251  0.69131891  0.73485049     0.35200
H453        H  0.12165051  0.65979683  0.74457497     0.28000
H454        H  0.15216174  0.79850999  0.70700121     0.32200
H455        H  0.08414861  0.75126265  0.72649777     0.35000
H456        H  0.14003096  0.72390003  0.63828510     0.27700
H457        H  0.12689759  0.66826558  0.77323509     0.40500
H458        H  0.15357151  0.74537130  0.83113110     0.30600
H459        H  0.18385508  0.74417624  0.76941118     0.38200
H460        H  0.06274471  0.70228038  0.69325924     0.30100
H461        H  0.11102418  0.74986010  0.81099048     0.30100
H462        H  0.13036422  0.79017894  0.71372730     0.30400
Zr463      Zr  0.07498550  0.82461760  0.44725388     2.17500
O464        O  0.10520723  0.82913190  0.46475144    -0.52000
O465        O  0.09126745  0.85791635  0.45956724    -0.75200
O466        O  0.09880765  0.83240682  0.41174982    -0.82000
O467        O  0.04962716  0.79906457  0.51203935    -0.83700
O468        O  0.08548668  0.83465905  0.37309404    -0.79300
O469        O  0.07783452  0.81150765  0.48959167    -0.91000
O470        O  0.07326401  0.87170473  0.45132856    -0.76900
O471        O  0.06542311  0.84072671  0.41651078    -0.86400
O472        O  0.05207998  0.83022506  0.46985225    -0.86100
O473        O  0.06228520  0.80285063  0.41040876    -0.72900
O474        O  0.04946782  0.79372900  0.46026045    -0.85000
Zr475      Zr  0.00272715  0.79206590  0.41267476     2.26400
Zr476      Zr  0.05164842  0.81880082  0.38050469     2.06300
Zr477      Zr  0.02609215  0.79920352  0.48157290     2.10000
Zr478      Zr  0.04185881  0.84535329  0.43815751     1.78800
O479        O  0.01152802  0.77048954  0.50931877    -0.93800
O480        O  0.04932244  0.86975025  0.40413146    -0.41600
O481        O  0.01572185  0.81418733  0.44958466    -0.78200
O482        O  0.02786458  0.82384754  0.40102159    -0.96900
O483        O  0.02645071  0.78744231  0.39157162    -0.90200
O484        O  0.01278134  0.77723665  0.44524316    -0.93100
C485        C  0.08888038  0.87245044  0.45875781     1.00700
C486        C  0.06722427  0.80332313  0.51002876     1.13600
C487        C  0.09965819  0.83638498  0.38670650     1.04400
O488        O  0.05900678  0.84739297  0.35484181    -0.95200
O489        O  0.02790646  0.80988696  0.34664684    -0.91000
O490        O  0.99832636  0.79076523  0.36395273    -0.84100
C491        C  0.00982688  0.79910787  0.34423755     1.11000
O492        O  0.06066423  0.76332994  0.42905163    -0.97200
Zr493      Zr  0.03621558  0.77235493  0.42360344     1.88900
O494        O  0.98397158  0.75729800  0.40640633    -0.73900
O495        O  0.05931150  0.80363786  0.34429961    -0.53100
O496        O  0.04230562  0.75833981  0.38449421    -0.97800
O497        O  0.02904913  0.74899109  0.45911493    -0.55000
O498        O  0.00537532  0.74686084  0.40941626    -0.74400
C499        C  0.98847436  0.74408000  0.40557832     0.98000
O500        O  0.97845737  0.79993123  0.39862852    -0.63200
O501        O  0.02555072  0.81871401  0.51825625    -0.58000
O502        O  0.97801881  0.78261412  0.44631369    -0.94700
O503        O  0.99199726  0.78798136  0.48722758    -0.93100
O504        O  0.03491268  0.85708220  0.47897554    -0.93500
O505        O  0.01758315  0.85462540  0.43242957    -0.92200
C506        C  0.97740867  0.78275843  0.47190987     1.16800
H507        H  0.05750565  0.83801199  0.48553781     0.32800
H508        H  0.02307188  0.82948373  0.38825225     0.43600
H509        H  0.00224920  0.76534553  0.45174593     0.37100
H510        H  0.07177257  0.80059552  0.40202402     0.33600
H511        H  0.05445869  0.88191491  0.41413717     0.25400
H512        H  0.04781288  0.79081052  0.34239852     0.31300
H513        H  0.03557966  0.76069226  0.36972984     0.37200
H514        H  0.02169848  0.84719516  0.48382404     0.31700
H515        H  0.01407632  0.81989915  0.51504463     0.30600
H516        H  0.00702682  0.77412509  0.52546275     0.32300
H517        H  0.01761640  0.73713797  0.45293308     0.31200
H518        H  0.00615130  0.84285578  0.42601659     0.35200
H519        H  0.97645986  0.80627636  0.41418637     0.28000
H520        H  0.11507038  0.84221217  0.45924788     0.32200
H521        H  0.07116520  0.77423382  0.43868119     0.35000
H522        H  0.02222914  0.81032421  0.53415991     0.27700
H523        H  0.98493370  0.81041580  0.38542381     0.40500
H524        H  0.06716856  0.84759013  0.33995611     0.30600
H525        H  0.06055205  0.87081340  0.39458718     0.38200
H526        H  0.02437111  0.75349921  0.47412605     0.30100
H527        H  0.05942760  0.81066766  0.32799640     0.30100
H528        H  0.10806308  0.82043591  0.45431293     0.30400
Zr529      Zr  0.84034345  0.60575104  0.78279946     2.17500
O530        O  0.83636297  0.63162610  0.80094945    -0.52000
O531        O  0.80714769  0.58939850  0.79713762    -0.75200
O532        O  0.83231804  0.62201563  0.74802755    -0.82000
O533        O  0.86771674  0.60574670  0.84643929    -0.83700
O534        O  0.82827702  0.60573162  0.70954237    -0.79300
O535        O  0.85582130  0.62203513  0.82390829    -0.91000
O536        O  0.79305146  0.55779663  0.78748033    -0.76900
O537        O  0.82346390  0.58010704  0.75243587    -0.86400
O538        O  0.83519968  0.57751646  0.80563589    -0.86100
O539        O  0.86129161  0.61444359  0.74482703    -0.72900
O540        O  0.87136034  0.61060501  0.79364861    -0.85000
Zr541      Zr  0.87124962  0.56520872  0.74603244     2.26400
Zr542      Zr  0.84458315  0.58791396  0.71518268     2.06300
Zr543      Zr  0.86635049  0.58194301  0.81532460     2.10000
Zr544      Zr  0.81902758  0.55208322  0.77463576     1.78800
O545        O  0.89717282  0.59714283  0.83804040    -0.93800
O546        O  0.79388131  0.53314333  0.74265129    -0.41600
O547        O  0.85018472  0.55664937  0.78387760    -0.78200
O548        O  0.83938880  0.55893380  0.73596807    -0.96900
O549        O  0.87590874  0.59357076  0.72478906    -0.90200
O550        O  0.88725216  0.59022643  0.77778821    -0.93100
C551        C  0.79243874  0.57256852  0.79575306     1.00700
C552        C  0.86408269  0.61951318  0.84417078     1.13600
C553        C  0.82733863  0.61854531  0.72337904     1.04400
O554        O  0.81686124  0.56507436  0.68963062    -0.95200
O555        O  0.85699013  0.57721186  0.67978021    -0.91000
O556        O  0.87265076  0.56289985  0.69745018    -0.84100
C557        C  0.86669369  0.56868228  0.67761839     1.11000
O558        O  0.90128234  0.65187305  0.76492093    -0.97200
Zr559      Zr  0.89200892  0.61859646  0.75596908     1.88900
O560        O  0.90588316  0.58097264  0.73953210    -0.73900
O561        O  0.85623627  0.61139470  0.67906064    -0.53100
O562        O  0.90245314  0.63807933  0.71551911    -0.97800
O563        O  0.91804975  0.63364726  0.78816983    -0.55000
O564        O  0.91651080  0.61291990  0.73783204    -0.74400
C565        C  0.91912203  0.59850608  0.73627517     0.98000
O566        O  0.86307556  0.53292878  0.73238623    -0.63200
O567        O  0.84902738  0.56254559  0.85390623    -0.58000
O568        O  0.87981358  0.54867142  0.77885860    -0.94700
O569        O  0.87504881  0.55696657  0.82028594    -0.93100
O570        O  0.81020402  0.53654309  0.81821352    -0.93500
O571        O  0.80852850  0.51800997  0.77456320    -0.92200
C572        C  0.87949111  0.54723818  0.80439953     1.16800
H573        H  0.82782769  0.57547003  0.82173012     0.32800
H574        H  0.83341418  0.54846580  0.72349919     0.43600
H575        H  0.89919697  0.59137913  0.78359362     0.37100
H576        H  0.86347990  0.62617286  0.73656793     0.33600
H577        H  0.78211890  0.52608742  0.75353862     0.25400
H578        H  0.86974819  0.61483808  0.67638283     0.31300
H579        H  0.91646148  0.64329577  0.71470848     0.37200
H580        H  0.79653185  0.53261024  0.82046873     0.31700
H581        H  0.85904587  0.56556965  0.86749829     0.30600
H582        H  0.89620505  0.58762666  0.85140465     0.32300
H583        H  0.92401738  0.62549296  0.78862483     0.31200
H584        H  0.82004475  0.51739311  0.76934432     0.35200
H585        H  0.85479161  0.52443610  0.74684812     0.28000
H586        H  0.82368984  0.62917289  0.79469751     0.32200
H587        H  0.91502435  0.65950996  0.76020555     0.35000
H588        H  0.84164899  0.56839486  0.86087284     0.27700
H589        H  0.85422808  0.52976421  0.71710294     0.40500
H590        H  0.80632551  0.56710762  0.69565757     0.30600
H591        H  0.79197759  0.54266277  0.73263902     0.38200
H592        H  0.91158598  0.63145810  0.80567502     0.30100
H593        H  0.84950469  0.60411485  0.66287693     0.30100
H594        H  0.84575758  0.64334456  0.79132155     0.30400
Zr595      Zr  0.90439165  0.73387640  0.04851362     2.17500
O596        O  0.87413306  0.70842895  0.03072624    -0.52000
O597        O  0.88644273  0.74982025  0.03772816    -0.75200
O598        O  0.88128732  0.71569804  0.08378022    -0.82000
O599        O  0.93097866  0.73523333  0.98384377    -0.83700
O600        O  0.89418811  0.73162587  0.12222213    -0.79300
O601        O  0.90312185  0.71818742  0.00671314    -0.91000
O602        O  0.90352399  0.78121801  0.04871907    -0.76900
O603        O  0.91310334  0.75879704  0.08007156    -0.86400
O604        O  0.92622444  0.76310390  0.02634937    -0.86100
O605        O  0.91819361  0.72504813  0.08447453    -0.72900
O606        O  0.93108072  0.73053422  0.03516563    -0.85000
Zr607      Zr  0.97688104  0.77585007  0.08284378     2.26400
Zr608      Zr  0.92787823  0.75092081  0.11510874     2.06300
Zr609      Zr  0.95331957  0.76004639  0.01399994     2.10000
Zr610      Zr  0.93572787  0.78772999  0.05884156     1.78800
O611        O  0.96977070  0.74856004  0.98526788    -0.93800
O612        O  0.92906687  0.80446186  0.09395504    -0.41600
O613        O  0.96281767  0.78461091  0.04688777    -0.78200
O614        O  0.95072468  0.78066696  0.09518903    -0.96900
O615        O  0.95431055  0.74671083  0.10370642    -0.90200
O616        O  0.96758082  0.75167787  0.04956377    -0.93100
C617        C  0.88817694  0.76642586  0.04059866     1.00700
C618        C  0.91380708  0.72109563  0.98623898     1.13600
C619        C  0.88035169  0.71866335  0.10877958     1.04400
O620        O  0.91810846  0.76904833  0.14340089    -0.95200
O621        O  0.95051837  0.76759677  0.14915881    -0.91000
O622        O  0.98037609  0.77961670  0.13193281    -0.84100
C623        C  0.96864530  0.77609441  0.15152575     1.11000
O624        O  0.92227601  0.68863401  0.06439539    -0.97200
Zr625      Zr  0.94529096  0.72252111  0.07093853     1.88900
O626        O  0.99693231  0.76091799  0.08648779    -0.73900
O627        O  0.92200746  0.72763087  0.15023724    -0.53100
O628        O  0.93946590  0.70400120  0.11187390    -0.97800
O629        O  0.95363383  0.70735885  0.03538270    -0.55000
O630        O  0.97675739  0.72880101  0.08364018    -0.74400
C631        C  0.99342843  0.74347712  0.08665757     0.98000
O632        O  0.00249390  0.80781329  0.09469877    -0.63200
O633        O  0.95180482  0.77984906  0.97824730    -0.58000
O634        O  0.00057654  0.79383385  0.04880350    -0.94700
O635        O  0.98681145  0.78472406  0.00786984    -0.93100
O636        O  0.94132436  0.80427103  0.01618392    -0.93500
O637        O  0.95709814  0.82217624  0.06259020    -0.92200
C638        C  0.00117289  0.79485983  0.02319487     1.16800
H639        H  0.92038320  0.76531494  0.01092969     0.32800
H640        H  0.95508766  0.79088781  0.10814631     0.43600
H641        H  0.97837800  0.75102356  0.04250245     0.37100
H642        H  0.90927922  0.71301712  0.09263800     0.33600
H643        H  0.92195478  0.80998778  0.08504320     0.25400
H644        H  0.93472798  0.72921957  0.15433387     0.31300
H645        H  0.94902125  0.71298992  0.12475853     0.37200
H646        H  0.93025603  0.80626115  0.01379989     0.31700
H647        H  0.96478614  0.78647758  0.97031201     0.30600
H648        H  0.96875709  0.75286408  0.96712230     0.32300
H649        H  0.96600581  0.70855649  0.04068686     0.31200
H650        H  0.96965590  0.82432640  0.05629245     0.35200
H651        H  0.99670233  0.81284022  0.10743052     0.28000
H652        H  0.86406428  0.71066670  0.03823221     0.32200
H653        H  0.92901471  0.68169510  0.06968825     0.35000
H654        H  0.94367800  0.77066647  0.96435228     0.27700
H655        H  0.01159170  0.80571939  0.10545599     0.40500
H656        H  0.91206974  0.76075522  0.15917165     0.30600
H657        H  0.91940668  0.79413756  0.10542154     0.38200
H658        H  0.95679514  0.71607728  0.01988543     0.30100
H659        H  0.91874125  0.73266416  0.16617369     0.30100
H660        H  0.87205038  0.69645108  0.03933240     0.30400
Zr661      Zr  0.05381600  0.58567349  0.11364250     2.17500
O662        O  0.02495172  0.55694855  0.12868758    -0.52000
O663        O  0.06919544  0.56776213  0.12774486    -0.75200
O664        O  0.03833586  0.56165177  0.07809495    -0.82000
O665        O  0.05202568  0.61338871  0.17472502    -0.83700
O666        O  0.05361918  0.57474898  0.03915511    -0.79300
O667        O  0.03904458  0.58364740  0.15664655    -0.91000
O668        O  0.10101314  0.58532312  0.11929775    -0.76900
O669        O  0.07951543  0.59412282  0.08355985    -0.86400
O670        O  0.08230250  0.60828871  0.13649809    -0.86100
O671        O  0.04588216  0.59887331  0.07602865    -0.72900
O672        O  0.04968828  0.61244346  0.12415872    -0.85000
Zr673      Zr  0.09587342  0.65774943  0.07697390     2.26400
Zr674      Zr  0.07254807  0.60835177  0.04675294     2.06300
Zr675      Zr  0.07846034  0.63537776  0.14609567     2.10000
Zr676      Zr  0.10773483  0.61721843  0.10546204     1.78800
O677        O  0.06665506  0.65269259  0.17238055    -0.93800
O678        O  0.12352598  0.60746373  0.07269508    -0.41600
O679        O  0.10395826  0.64441842  0.11469518    -0.78200
O680        O  0.10158925  0.63170265  0.06737400    -0.96900
O681        O  0.06756726  0.63465069  0.05544760    -0.90200
O682        O  0.07081805  0.64896083  0.10880600    -0.93100
C683        C  0.08602848  0.56984025  0.12688814     1.00700
C684        C  0.03993420  0.59529196  0.17479044     1.13600
C685        C  0.04120290  0.56070104  0.05298543     1.04400
O686        O  0.09271764  0.59938434  0.02170630    -0.95200
O687        O  0.08898245  0.63080996  0.01219537    -0.91000
O688        O  0.10037831  0.66083807  0.02826461    -0.84100
C689        C  0.09710106  0.64889755  0.00915564     1.11000
O690        O  0.00842081  0.60303256  0.09121940    -0.97200
Zr691      Zr  0.04248320  0.62601948  0.08657522     1.88900
O692        O  0.08085919  0.67762332  0.07126522    -0.73900
O693        O  0.04975479  0.60135692  0.01066636    -0.53100
O694        O  0.02646638  0.61998030  0.04350391    -0.97800
O695        O  0.02567484  0.63448353  0.11946209    -0.55000
O696        O  0.04877011  0.65723553  0.07165380    -0.74400
C697        C  0.06345270  0.67400460  0.06927784     0.98000
O698        O  0.12642157  0.68289244  0.05947017    -0.63200
O699        O  0.09590342  0.63386371  0.18491568    -0.58000
O700        O  0.11367307  0.68170770  0.11043313    -0.94700
O701        O  0.10371185  0.66886404  0.15174462    -0.93100
O702        O  0.12475866  0.62398012  0.14774272    -0.93500
O703        O  0.14206248  0.63942131  0.10231223    -0.92200
C704        C  0.11429837  0.68287146  0.13596669     1.16800
H705        H  0.08421609  0.60283332  0.15260273     0.32800
H706        H  0.11211680  0.63598900  0.05494657     0.43600
H707        H  0.06984580  0.65977983  0.11498473     0.37100
H708        H  0.03419063  0.58950585  0.06766281     0.33600
H709        H  0.13101361  0.60315118  0.08338346     0.25400
H710        H  0.04919973  0.61327330  0.00830799     0.31300
H711        H  0.02127417  0.62880740  0.04271127     0.37200
H712        H  0.12467904  0.63542411  0.15471467     0.31700
H713        H  0.09913028  0.64553797  0.19527910     0.30600
H714        H  0.07231190  0.65389407  0.19030119     0.32300
H715        H  0.02741817  0.64700419  0.11362497     0.31200
H716        H  0.14376408  0.65187020  0.10835611     0.35200
H717        H  0.12700733  0.69514799  0.06387917     0.28000
H718        H  0.02708991  0.54611538  0.12481766     0.32200
H719        H  0.00171229  0.60941593  0.08357383     0.35000
H720        H  0.08621222  0.62321280  0.19593950     0.27700
H721        H  0.13628786  0.68253445  0.07082309     0.40500
H722        H  0.08642172  0.59523148  0.00409329     0.30600
H723        H  0.11308793  0.59553074  0.06485977     0.38200
H724        H  0.03346607  0.63740637  0.13587762     0.30100
H725        H  0.05631556  0.60056748  0.99443168     0.30100
H726        H  0.01467168  0.55531984  0.11630942     0.30400
Zr727      Zr  0.92598023  0.52177685  0.37828102     2.17500
O728        O  0.95337515  0.52047555  0.36015416    -0.52000
O729        O  0.90916167  0.48833723  0.36577252    -0.75200
O730        O  0.94228512  0.51276886  0.41171256    -0.82000
O731        O  0.92446688  0.54903229  0.31576287    -0.83700
O732        O  0.92697348  0.50965464  0.45086619    -0.79300
O733        O  0.93864509  0.53339109  0.33396414    -0.91000
O734        O  0.87795843  0.47517358  0.37743394    -0.76900
O735        O  0.90226596  0.50644280  0.41175749    -0.86400
O736        O  0.89653610  0.51613202  0.35882243    -0.86100
O737        O  0.93699774  0.54385532  0.41497814    -0.72900
O738        O  0.93058995  0.55257944  0.36624801    -0.85000
Zr739      Zr  0.88828062  0.55502333  0.41836638     2.26400
Zr740      Zr  0.91210136  0.52883055  0.44747407     2.06300
Zr741      Zr  0.90100374  0.54715747  0.34783062     2.10000
Zr742      Zr  0.87314693  0.50126115  0.39308497     1.78800
O743        O  0.91365057  0.57705925  0.32290642    -0.93800
O744        O  0.86006558  0.47624532  0.42712211    -0.41600
O745        O  0.87749474  0.53227081  0.38214500    -0.78200
O746        O  0.88232241  0.52339985  0.42984743    -0.96900
O747        O  0.91752494  0.55994603  0.43668020    -0.90200
O748        O  0.91163655  0.56941370  0.38381333    -0.93100
C749        C  0.89221776  0.47397689  0.36826603     1.00700
C750        C  0.93662813  0.54315460  0.31524251     1.13600
C751        C  0.93897569  0.50780963  0.43640261     1.04400
O752        O  0.89277023  0.50277094  0.47825187    -0.95200
O753        O  0.89997387  0.53853642  0.48403047    -0.91000
O754        O  0.88691608  0.55567648  0.46747842    -0.84100
C755        C  0.89173755  0.54844525  0.48692471     1.11000
O756        O  0.97256646  0.57957788  0.39116544    -0.97200
Zr757      Zr  0.94091851  0.57430313  0.40267233     1.88900
O758        O  0.90533885  0.59021328  0.42239424    -0.73900
O759        O  0.93872578  0.54579025  0.47832812    -0.53100
O760        O  0.96029505  0.58700046  0.44273293    -0.97800
O761        O  0.95774322  0.59972449  0.36987723    -0.55000
O762        O  0.93701947  0.60062856  0.41687110    -0.74400
C763        C  0.92306162  0.60353688  0.42145372     0.98000
O764        O  0.85709917  0.54929376  0.43413461    -0.63200
O765        O  0.88212534  0.52834739  0.30991912    -0.58000
O766        O  0.86922554  0.56121775  0.38670242    -0.94700
O767        O  0.87593992  0.55575679  0.34461936    -0.93100
O768        O  0.85161065  0.48911405  0.35497210    -0.93500
O769        O  0.84036288  0.49176987  0.40530088    -0.92200
C770        C  0.86661698  0.56012413  0.36134292     1.16800
H771        H  0.89342598  0.50818787  0.34314045     0.32800
H772        H  0.87257832  0.51796343  0.44350511     0.43600
H773        H  0.91271836  0.58123148  0.37741761     0.37100
H774        H  0.94902618  0.54580500  0.42191301     0.33600
H775        H  0.85066311  0.46454930  0.41755679     0.25400
H776        H  0.93414789  0.53874050  0.49541526     0.31300
H777        H  0.96385157  0.57731319  0.44782850     0.37200
H778        H  0.85793103  0.48468943  0.34219866     0.31700
H779        H  0.86992010  0.51836944  0.31780010     0.30600
H780        H  0.90873322  0.57312056  0.30454756     0.32300
H781        H  0.96628345  0.61121674  0.38050912     0.31200
H782        H  0.83981989  0.50376232  0.40422921     0.35200
H783        H  0.84761657  0.53915577  0.42232003     0.28000
H784        H  0.95133851  0.50764052  0.36484664     0.32200
H785        H  0.98178011  0.59180274  0.39979327     0.35000
H786        H  0.87869799  0.53691236  0.30016838     0.27700
H787        H  0.85467949  0.54278415  0.45164323     0.40500
H788        H  0.90201232  0.50274988  0.49124117     0.30600
H789        H  0.87065197  0.47384965  0.43157437     0.38200
H790        H  0.94790049  0.60242456  0.36267151     0.30100
H791        H  0.94883234  0.54310991  0.47228277     0.30100
H792        H  0.96451432  0.52960111  0.37092760     0.30400
Zr793      Zr  0.74344857  0.61190533  0.28114534     2.17500
O794        O  0.77227195  0.64280484  0.28869615    -0.52000
O795        O  0.76210040  0.59677940  0.29301576    -0.75200
O796        O  0.74714324  0.62304722  0.32710706    -0.82000
O797        O  0.75131332  0.61723366  0.20561941    -0.83700
O798        O  0.71834741  0.60739504  0.34822856    -0.79300
O799        O  0.76635060  0.62931867  0.24502574    -0.91000
O800        O  0.74302440  0.56451646  0.28992414    -0.76900
O801        O  0.72143880  0.58300519  0.30386006    -0.86400
O802        O  0.73453889  0.58656510  0.25014607    -0.86100
O803        O  0.71690735  0.61597079  0.29434885    -0.72900
O804        O  0.72885779  0.61922326  0.24477297    -0.85000
Zr805      Zr  0.67065216  0.56901652  0.24795593     2.26400
Zr806      Zr  0.69445755  0.58637978  0.31587708     2.06300
Zr807      Zr  0.71911563  0.59324136  0.21460347     2.10000
Zr808      Zr  0.71225640  0.55794092  0.27225054     1.78800
O809        O  0.72155071  0.61240766  0.17557812    -0.93800
O810        O  0.70426964  0.53792904  0.31205079    -0.41600
O811        O  0.69671145  0.56408119  0.23578791    -0.78200
O812        O  0.68517630  0.56094189  0.28424515    -0.96900
O813        O  0.68006483  0.59399981  0.27976199    -0.90200
O814        O  0.69294381  0.59785838  0.22598940    -0.93100
C815        C  0.75902664  0.57958825  0.29530319     1.00700
C816        C  0.76588116  0.62878183  0.21931451     1.13600
C817        C  0.73631839  0.61988145  0.34751746     1.04400
O818        O  0.69105270  0.56597873  0.35383027    -0.95200
O819        O  0.66073716  0.56211270  0.32301911    -0.91000
O820        O  0.64681716  0.55233465  0.28228849    -0.84100
C821        C  0.64627930  0.55174200  0.30787664     1.11000
O822        O  0.72871788  0.65571218  0.26093838    -0.97200
Zr823      Zr  0.70230174  0.62279382  0.25775691     1.88900
O824        O  0.65045884  0.58383856  0.24520996    -0.73900
O825        O  0.68043996  0.60265463  0.33981338    -0.53100
O826        O  0.69379472  0.63872375  0.29197127    -0.97800
O827        O  0.70550644  0.64143300  0.21770045    -0.55000
O828        O  0.66993973  0.61600188  0.24961732    -0.74400
C829        C  0.65342141  0.60106952  0.24660402     0.98000
O830        O  0.64563640  0.53748500  0.23328930    -0.63200
O831        O  0.73299000  0.57619241  0.19219345    -0.58000
O832        O  0.66597017  0.56202836  0.19984855    -0.94700
O833        O  0.69573609  0.57397694  0.18236179    -0.93100
O834        O  0.72388904  0.54501193  0.23781892    -0.93500
O835        O  0.69050247  0.52407558  0.26359979    -0.92200
C836        C  0.67753673  0.56466280  0.18043248     1.16800
H837        H  0.74552069  0.58596428  0.24378910     0.32800
H838        H  0.67608142  0.54878550  0.29202702     0.43600
H839        H  0.68740550  0.60024145  0.21037057     0.37100
H840        H  0.72108287  0.62665147  0.30625292     0.33600
H841        H  0.71113311  0.53069832  0.30986078     0.25400
H842        H  0.67893061  0.59782680  0.35835555     0.31300
H843        H  0.70454035  0.64409547  0.30481593     0.37200
H844        H  0.72907441  0.53794242  0.24768588     0.31700
H845        H  0.72197040  0.56362483  0.18719082     0.30600
H846        H  0.72567802  0.60706845  0.16092312     0.32300
H847        H  0.69256806  0.63535999  0.20970163     0.31200
H848        H  0.67801294  0.52318778  0.26000343     0.35200
H849        H  0.64551888  0.52831498  0.24659373     0.28000
H850        H  0.77915373  0.64085778  0.30365210     0.32200
H851        H  0.72274371  0.66375254  0.26342030     0.35000
H852        H  0.73790355  0.58303516  0.17503037     0.27700
H853        H  0.63340999  0.53734968  0.23602095     0.40500
H854        H  0.70413005  0.56830216  0.35724260     0.30600
H855        H  0.71113510  0.54700391  0.32671888     0.38200
H856        H  0.71310425  0.63835729  0.20523977     0.30100
H857        H  0.69076563  0.61620637  0.34085858     0.30100
H858        H  0.76779297  0.65134941  0.29579564     0.30400
Zr859      Zr  0.80213246  0.73005258  0.55543540     2.17500
O860        O  0.80230343  0.70015120  0.54851219    -0.52000
O861        O  0.83578073  0.74383048  0.54309419    -0.75200
O862        O  0.79357163  0.71793887  0.51017131    -0.82000
O863        O  0.80139377  0.72264946  0.63100668    -0.83700
O864        O  0.78191885  0.73461109  0.48807405    -0.79300
O865        O  0.80385128  0.71039122  0.59151681    -0.91000
O866        O  0.85069744  0.77604344  0.54827705    -0.76900
O867        O  0.81053960  0.75920425  0.53239014    -0.86400
O868        O  0.81967761  0.75519572  0.58631966    -0.86100
O869        O  0.77213591  0.72730282  0.54183288    -0.72900
O870        O  0.78033106  0.72412599  0.59159634    -0.85000
Zr871      Zr  0.77598089  0.77627562  0.58790776     2.26400
Zr872      Zr  0.78086032  0.75714118  0.51974941     2.06300
Zr873      Zr  0.79790953  0.74989030  0.62178894     2.10000
Zr874      Zr  0.82725887  0.78417963  0.56392641     1.78800
O875        O  0.78575718  0.73438433  0.66482529    -0.93800
O876        O  0.84072709  0.80356426  0.52387875    -0.41600
O877        O  0.80616032  0.77947456  0.60056479    -0.78200
O878        O  0.79792223  0.78255814  0.55125759    -0.96900
O879        O  0.75932669  0.75153103  0.55595342    -0.90200
O880        O  0.76784452  0.74699342  0.60993688    -0.93100
C881        C  0.85068028  0.76061103  0.54206704     1.00700
C882        C  0.80323800  0.71037562  0.61717581     1.13600
C883        C  0.78648155  0.72142481  0.48941005     1.04400
O884        O  0.79987644  0.77624936  0.48200205    -0.95200
O885        O  0.77253953  0.78216822  0.51172515    -0.91000
O886        O  0.76960035  0.79289485  0.55245739    -0.84100
C887        C  0.76916707  0.79308754  0.52682565     1.11000
O888        O  0.74013375  0.68824249  0.57779013    -0.97200
Zr889      Zr  0.75104449  0.72240600  0.57811710     1.88900
O890        O  0.74146073  0.76391778  0.59127550    -0.73900
O891        O  0.75069880  0.74216321  0.49537959    -0.53100
O892        O  0.72880659  0.70687450  0.54139605    -0.97800
O893        O  0.73319400  0.70513544  0.61775673    -0.55000
O894        O  0.72710411  0.73186587  0.58363043    -0.74400
C895        C  0.72662565  0.74726684  0.58808770     0.98000
O896        O  0.78586772  0.80905809  0.60097700    -0.63200
O897        O  0.83030167  0.76785480  0.63948020    -0.58000
O898        O  0.77720506  0.78221187  0.63658240    -0.94700
O899        O  0.79338876  0.76861987  0.65474375    -0.93100
O900        O  0.85223384  0.79723597  0.59773655    -0.93500
O901        O  0.83989516  0.81828502  0.57125185    -0.92200
C902        C  0.78498380  0.77843213  0.65652036     1.16800
H903        H  0.83092656  0.75505465  0.59256392     0.32800
H904        H  0.80152440  0.79476972  0.54312299     0.43600
H905        H  0.75996444  0.74501247  0.62545319     0.37100
H906        H  0.76501042  0.71647593  0.53026746     0.33600
H907        H  0.85476279  0.80957206  0.52607929     0.25400
H908        H  0.75433810  0.74622970  0.47661526     0.31300
H909        H  0.71612655  0.69930266  0.55001680     0.37200
H910        H  0.86438190  0.80369122  0.58755993     0.31700
H911        H  0.83160443  0.78012880  0.64557775     0.30600
H912        H  0.79722109  0.73881799  0.67624681     0.32300
H913        H  0.72845918  0.71320763  0.62576439     0.31200
H914        H  0.82845027  0.81978366  0.57209611     0.35200
H915        H  0.79497980  0.81725668  0.58698906     0.28000
H916        H  0.81127667  0.70263257  0.53355781     0.32200
H917        H  0.75004408  0.68698996  0.58779437     0.35000
H918        H  0.83001106  0.76106128  0.65611046     0.27700
H919        H  0.77442300  0.81040744  0.59842188     0.40500
H920        H  0.79074573  0.77215128  0.46692431     0.30600
H921        H  0.83759145  0.79417150  0.50932865     0.38200
H922        H  0.74308794  0.70607780  0.63035060     0.30100
H923        H  0.74637985  0.72829993  0.49541400     0.30100
H924        H  0.78948266  0.69089468  0.54145871     0.30400
Zr925      Zr  0.71345003  0.81358506  0.95062561     2.17500
O926        O  0.68174523  0.80937217  0.95910779    -0.52000
O927        O  0.72724205  0.84750189  0.96122261    -0.75200
O928        O  0.70355497  0.80715341  0.99711467    -0.82000
O929        O  0.70497257  0.81285235  0.87525837    -0.83700
O930        O  0.72048116  0.79552406  0.01848131    -0.79300
O931        O  0.69510809  0.81818368  0.91510230    -0.91000
O932        O  0.75885729  0.86279739  0.95065236    -0.76900
O933        O  0.74364446  0.82355293  0.97149352    -0.86400
O934        O  0.73718141  0.82957277  0.91724178    -0.86100
O935        O  0.71193286  0.78436312  0.96579225    -0.72900
O936        O  0.70581732  0.79023099  0.91617345    -0.85000
Zr937      Zr  0.75910908  0.78683481  0.91753653     2.26400
Zr938      Zr  0.74265798  0.79466176  0.98597934     2.06300
Zr939      Zr  0.73032040  0.80625028  0.88354280     2.10000
Zr940      Zr  0.76717013  0.83884704  0.93748712     1.78800
O941        O  0.71039791  0.78696105  0.84666121    -0.93800
O942        O  0.78831464  0.85372948  0.97546975    -0.41600
O943        O  0.76082981  0.81601764  0.90274866    -0.78200
O944        O  0.76673828  0.81036964  0.95221714    -0.96900
O945        O  0.73555230  0.77141375  0.95158583    -0.90200
O946        O  0.72904566  0.77730018  0.89735939    -0.93100
C947        C  0.74371771  0.86268242  0.95882619     1.00700
C948        C  0.69435042  0.81694968  0.88944618     1.13600
C949        C  0.70739128  0.80020863  0.01775036     1.04400
O950        O  0.76370418  0.81771967  0.01896960    -0.95200
O951        O  0.76793633  0.78674699  0.99337953    -0.91000
O952        O  0.77647777  0.78115185  0.95257345    -0.84100
C953        C  0.77791897  0.78224299  0.97811056     1.11000
O954        O  0.67146744  0.74923079  0.93851663    -0.97200
Zr955      Zr  0.70556112  0.76186103  0.93096705     1.88900
O956        O  0.74629458  0.75223232  0.91301453    -0.73900
O957        O  0.73168902  0.76761422  0.01657365    -0.53100
O958        O  0.69260261  0.73756169  0.96597721    -0.97800
O959        O  0.68677043  0.74662543  0.89111093    -0.55000
O960        O  0.71424287  0.73815555  0.92012330    -0.74400
C961        C  0.72942029  0.73750147  0.91487270     0.98000
O962        O  0.79159037  0.79608632  0.90365940    -0.63200
O963        O  0.74573202  0.83632913  0.85884390    -0.58000
O964        O  0.76556601  0.78895009  0.86904406    -0.94700
O965        O  0.74907425  0.80202799  0.85026311    -0.93100
O966        O  0.77975875  0.86222111  0.90134806    -0.93500
O967        O  0.80094854  0.85157724  0.92751172    -0.92200
C968        C  0.76054454  0.79544437  0.84885391     1.16800
H969        H  0.73670763  0.84046873  0.91006343     0.32800
H970        H  0.77928054  0.81439688  0.95938139     0.43600
H971        H  0.72688154  0.76895012  0.88238369     0.37100
H972        H  0.70163571  0.77754560  0.97828911     0.33600
H973        H  0.79447155  0.86767571  0.97201112     0.25400
H974        H  0.73495709  0.77338569  0.03458789     0.31300
H975        H  0.70385588  0.73979705  0.97664934     0.37200
H976        H  0.78482196  0.87481615  0.91017233     0.31700
H977        H  0.75935961  0.83985121  0.85777288     0.30600
H978        H  0.71206281  0.79632850  0.83259500     0.32300
H979        H  0.69468442  0.74301397  0.88016900     0.31200
H980        H  0.80117361  0.84214739  0.91510671     0.35200
H981        H  0.80006488  0.80586565  0.91671998     0.28000
H982        H  0.68356834  0.81901711  0.97273762     0.32200
H983        H  0.66526201  0.73533461  0.93472952     0.35000
H984        H  0.74091279  0.83276646  0.84037516     0.27700
H985        H  0.79306404  0.78479961  0.90725932     0.40500
H986        H  0.76061956  0.81036156  0.03586366     0.30600
H987        H  0.77963022  0.85147965  0.99070376     0.38200
H988        H  0.68666369  0.75715936  0.88104854     0.30100
H989        H  0.71754362  0.76104806  0.01582008     0.30100
H990        H  0.67429087  0.79679635  0.96812465     0.30400
Zr991      Zr  0.59469539  0.75869598  0.22401454     2.17500
O992        O  0.62331211  0.78935683  0.21408312    -0.52000
O993        O  0.57939531  0.77718747  0.21167786    -0.75200
O994        O  0.60729676  0.76119214  0.17891258    -0.82000
O995        O  0.60033437  0.76768971  0.29922502    -0.83700
O996        O  0.59253825  0.73198097  0.15896077    -0.79300
O997        O  0.61387623  0.78116732  0.25949336    -0.91000
O998        O  0.54713366  0.75807745  0.21384753    -0.76900
O999        O  0.56602581  0.73644280  0.20137099    -0.86400
O1000       O  0.56897633  0.75053880  0.25431395    -0.86100
O1001       O  0.59877660  0.73173243  0.21310051    -0.72900
O1002       O  0.60149973  0.74465522  0.26171694    -0.85000
Zr1003     Zr  0.55075552  0.68642808  0.25958674     2.26400
Zr1004     Zr  0.56953688  0.70930247  0.19101435     2.06300
Zr1005     Zr  0.57518645  0.73573725  0.29120069     2.10000
Zr1006     Zr  0.54053480  0.72770980  0.23232477     1.78800
O1007       O  0.59358063  0.73876184  0.33126899    -0.93800
O1008       O  0.52140747  0.72051622  0.19180741    -0.41600
O1009       O  0.54608493  0.71290986  0.27024563    -0.78200
O1010       O  0.54353691  0.70047835  0.22177226    -0.96900
O1011       O  0.57623049  0.69512869  0.22857724    -0.90200
O1012       O  0.57927171  0.70896499  0.28167165    -0.93100
C1013       C  0.56224950  0.77406980  0.20884782     1.00700
C1014       C  0.61300951  0.78138817  0.28515550     1.13600
C1015       C  0.60497661  0.74997496  0.15932555     1.04400
O1016       O  0.55132796  0.70970917  0.15246891    -0.95200
O1017       O  0.54507019  0.67577477  0.18371907    -0.91000
O1018       O  0.53412585  0.66281806  0.22478801    -0.84100
C1019       C  0.53402780  0.66175910  0.19918257     1.11000
O1020       O  0.63824144  0.74209480  0.24668599    -0.97200
Zr1021     Zr  0.60466252  0.71743836  0.25104542     1.88900
O1022       O  0.56503243  0.66591215  0.26488092    -0.73900
O1023       O  0.58368202  0.69298929  0.16746346    -0.53100
O1024       O  0.62148609  0.70800941  0.21954043    -0.97800
O1025       O  0.62151807  0.72145551  0.29307613    -0.55000
O1026       O  0.59729529  0.68526613  0.26247311    -0.74400
C1027       C  0.58223608  0.66881928  0.26539506     0.98000
O1028       O  0.51934423  0.66118797  0.27440818    -0.63200
O1029       O  0.55867485  0.75059905  0.31240569    -0.58000
O1030       O  0.54397005  0.68318821  0.30812962    -0.94700
O1031       O  0.55609273  0.71324151  0.32470158    -0.93100
O1032       O  0.52610493  0.73865313  0.26551740    -0.93500
O1033       O  0.50645755  0.70600771  0.23934933    -0.92200
C1034       C  0.54693268  0.69505163  0.32732574     1.16800
H1035       H  0.56841544  0.76168523  0.25999256     0.32800
H1036       H  0.53147620  0.69145914  0.21385594     0.43600
H1037       H  0.58124319  0.70359466  0.29777266     0.37100
H1038       H  0.60979172  0.73554141  0.20192993     0.33600
H1039       H  0.53082027  0.72717533  0.17735530     0.25400
H1040       H  0.58235624  0.69511689  0.14830126     0.31300
H1041       H  0.62618773  0.71778579  0.20519655     0.37200
H1042       H  0.53371758  0.75281691  0.26487689     0.31700
H1043       H  0.54547795  0.73995538  0.31553463     0.30600
H1044       H  0.58887094  0.74432526  0.34484851     0.32300
H1045       H  0.61337206  0.70974613  0.30363324     0.31200
H1046       H  0.50553722  0.69379000  0.24501020     0.35200
H1047       H  0.51016692  0.66081690  0.26096067     0.28000
H1048       H  0.62033912  0.79445926  0.19789926     0.32200
H1049       H  0.64565303  0.73619600  0.25343511     0.35000
H1050       H  0.56437346  0.75417072  0.33044218     0.27700
H1051       H  0.51946615  0.64905716  0.27194978     0.40500
H1052       H  0.53785647  0.70013009  0.15657085     0.30600
H1053       H  0.51643432  0.70673226  0.18836552     0.38200
H1054       H  0.62062280  0.73177548  0.30246037     0.30100
H1055       H  0.59757696  0.70079764  0.17104539     0.30100
H1056       H  0.63326065  0.78630115  0.20848906     0.30400
Zr1057     Zr  0.50954342  0.58693000  0.61958710     2.17500
O1058       O  0.50773086  0.55611166  0.62736394    -0.52000
O1059       O  0.47574176  0.56867629  0.63239002    -0.75200
O1060       O  0.51963354  0.58319531  0.66409580    -0.82000
O1061       O  0.50156021  0.57840259  0.54470726    -0.83700
O1062       O  0.53601798  0.61210084  0.68466683    -0.79300
O1063       O  0.50447492  0.56478434  0.58277111    -0.91000
O1064       O  0.46318705  0.58834761  0.63233928    -0.76900
O1065       O  0.50556256  0.60982066  0.64483368    -0.86400
O1066       O  0.49180654  0.59655874  0.59193001    -0.86100
O1067       O  0.54143020  0.61288204  0.62951499    -0.72900
O1068       O  0.52911341  0.60076341  0.58070974    -0.85000
Zr1069     Zr  0.53945140  0.65972445  0.58643908     2.26400
Zr1070     Zr  0.53704506  0.63624328  0.65379917     2.06300
Zr1071     Zr  0.51156103  0.61120541  0.55388491     2.10000
Zr1072     Zr  0.48824372  0.61965656  0.61677031     1.78800
O1073       O  0.52261952  0.60587055  0.51125036    -0.93800
O1074       O  0.47899134  0.62560697  0.66044414    -0.41600
O1075       O  0.50733043  0.63439961  0.57761021    -0.78200
O1076       O  0.51956349  0.64613120  0.62551062    -0.96900
O1077       O  0.55648980  0.64979718  0.61497445    -0.90200
O1078       O  0.54335904  0.63662928  0.56219039    -0.93100
C1079       C  0.46180778  0.57190161  0.63590096     1.00700
C1080       C  0.50141443  0.56459281  0.55750207     1.13600
C1081       C  0.52919954  0.59383373  0.68383309     1.04400
O1082       O  0.51985024  0.63775670  0.69279873    -0.95200
O1083       O  0.54882116  0.67077441  0.66091717    -0.91000
O1084       O  0.55083207  0.68435225  0.62028859    -0.84100
C1085       C  0.55263046  0.68526937  0.64575717     1.11000
O1086       O  0.56819718  0.60123783  0.59313149    -0.97200
Zr1087     Zr  0.56041626  0.62679762  0.59047030     1.88900
O1088       O  0.57389659  0.67883248  0.57846313    -0.73900
O1089       O  0.56805278  0.65022251  0.67591582    -0.53100
O1090       O  0.58725563  0.63486525  0.62026104    -0.97800
O1091       O  0.57089170  0.62217792  0.54682586    -0.55000
O1092       O  0.58590752  0.65863122  0.57896453    -0.74400
C1093       C  0.58774881  0.67532234  0.57669545     0.98000
O1094       O  0.53155843  0.68450702  0.57561889    -0.63200
O1095       O  0.47986965  0.60063153  0.53547743    -0.58000
O1096       O  0.53675110  0.66504148  0.53869224    -0.94700
O1097       O  0.51751005  0.63545371  0.52150216    -0.93100
O1098       O  0.46247747  0.61230633  0.58529513    -0.93500
O1099       O  0.47842185  0.64374111  0.61612733    -0.92200
C1100       C  0.52734209  0.65367985  0.51936627     1.16800
H1101       H  0.47968277  0.58588741  0.58649230     0.32800
H1102       H  0.51768099  0.65569339  0.63432735     0.43600
H1103       H  0.55038820  0.64191694  0.54583932     0.37100
H1104       H  0.54848976  0.60843368  0.63989670     0.33600
H1105       H  0.46501852  0.62052105  0.65918552     0.25400
H1106       H  0.56540955  0.65201953  0.69465712     0.31300
H1107       H  0.58864712  0.64587473  0.63077088     0.37200
H1108       H  0.45382104  0.59828550  0.58668222     0.31700
H1109       H  0.47935477  0.61254765  0.53281819     0.30600
H1110       H  0.51185806  0.60228535  0.49873178     0.32300
H1111       H  0.57947297  0.63520984  0.53972640     0.31200
H1112       H  0.48960183  0.65536564  0.60877466     0.35200
H1113       H  0.52505083  0.68571648  0.59162764     0.28000
H1114       H  0.49947040  0.55042840  0.64324862     0.32200
H1115       H  0.58160283  0.60701760  0.58687503     0.35000
H1116       H  0.48035283  0.59627604  0.51719184     0.27700
H1117       H  0.54399228  0.69661565  0.57484270     0.40500
H1118       H  0.51802528  0.64886838  0.68957309     0.30600
H1119       H  0.48023349  0.61662031  0.67267683     0.38200
H1120       H  0.55936300  0.61700585  0.53540244     0.30100
H1121       H  0.57122105  0.63983955  0.67670701     0.30100
H1122       H  0.52068779  0.55906398  0.63302684     0.30400
Zr1123     Zr  0.56959394  0.51955968  0.88885143     2.17500
O1124       O  0.53899070  0.51789517  0.88042745    -0.52000
O1125       O  0.55117795  0.48536332  0.87868383    -0.75200
O1126       O  0.56628645  0.52850784  0.84316941    -0.82000
O1127       O  0.56215790  0.51922275  0.96426493    -0.83700
O1128       O  0.59506651  0.54216312  0.82202914    -0.79300
O1129       O  0.54766103  0.51733961  0.92472563    -0.91000
O1130       O  0.57012799  0.47211935  0.88284779    -0.76900
O1131       O  0.59168221  0.51268581  0.86646351    -0.86400
O1132       O  0.57858016  0.50331933  0.92046881    -0.86100
O1133       O  0.59612114  0.55027508  0.87585013    -0.72900
O1134       O  0.58424215  0.54162057  0.92489847    -0.85000
Zr1135     Zr  0.64253849  0.54963253  0.92226149     2.26400
Zr1136     Zr  0.61851498  0.54318236  0.85413529     2.06300
Zr1137     Zr  0.59389087  0.52554893  0.95578570     2.10000
Zr1138     Zr  0.60104336  0.49706123  0.89863162     1.78800
O1139       O  0.58944943  0.54038467  0.99537632    -0.93800
O1140       O  0.60856375  0.48476259  0.85885433    -0.41600
O1141       O  0.61635988  0.51875046  0.93505193    -0.78200
O1142       O  0.62793684  0.52712591  0.88602931    -0.96900
O1143       O  0.63335851  0.56542173  0.89011960    -0.90200
O1144       O  0.62027894  0.55615244  0.94408295    -0.93100
C1145       C  0.55409858  0.47109296  0.87742838     1.00700
C1146       C  0.54804287  0.51739508  0.95045331     1.13600
C1147       C  0.57710774  0.53680761  0.82287637     1.04400
O1148       O  0.61941981  0.52419513  0.81703223    -0.95200
O1149       O  0.65207503  0.55208779  0.84693761    -0.91000
O1150       O  0.66624380  0.55696690  0.88766325    -0.84100
C1151       C  0.66661862  0.55649612  0.86208193     1.11000
O1152       O  0.58844656  0.58352914  0.91083811    -0.97200
Zr1153     Zr  0.61096232  0.57168679  0.91218125     1.88900
O1154       O  0.66255430  0.58438054  0.92853385    -0.73900
O1155       O  0.63379948  0.57285715  0.82842592    -0.53100
O1156       O  0.61717515  0.59425888  0.87583509    -0.97800
O1157       O  0.60657042  0.58492762  0.95354534    -0.55000
O1158       O  0.64293646  0.59669437  0.92250599    -0.74400
C1159       C  0.65929486  0.59845578  0.92752264     0.98000
O1160       O  0.66771181  0.54328674  0.93685898    -0.63200
O1161       O  0.58079711  0.49462764  0.97813528    -0.58000
O1162       O  0.64722303  0.54685591  0.97012114    -0.94700
O1163       O  0.61755457  0.53092346  0.98852715    -0.93100
O1164       O  0.58978028  0.47137125  0.93155697    -0.93500
O1165       O  0.62449708  0.48709822  0.90761469    -0.92200
C1166       C  0.63576074  0.53904343  0.99000750     1.16800
H1167       H  0.56763734  0.49174432  0.92702675     0.32800
H1168       H  0.63698985  0.52398996  0.87833836     0.43600
H1169       H  0.62587552  0.56409174  0.95962326     0.37100
H1170       H  0.59210982  0.55714461  0.86429028     0.33600
H1171       H  0.60306992  0.47088612  0.86234570     0.25400
H1172       H  0.63390219  0.56880405  0.80982326     0.31300
H1173       H  0.63128921  0.60192458  0.87441465     0.37200
H1174       H  0.58820952  0.46010007  0.92152968     0.31700
H1175       H  0.59130518  0.49164624  0.97772140     0.30600
H1176       H  0.58644189  0.53095688  0.00992634     0.32300
H1177       H  0.61956756  0.59303373  0.96093596     0.31200
H1178       H  0.63196528  0.49500416  0.92297995     0.35200
H1179       H  0.66744596  0.53383234  0.92402915     0.28000
H1180       H  0.53321494  0.50913805  0.86508358     0.32200
H1181       H  0.59629373  0.59764050  0.91252784     0.35000
H1182       H  0.57981213  0.49736555  0.99713072     0.27700
H1183       H  0.67993781  0.55523402  0.93332630     0.40500
H1184       H  0.62289543  0.53279467  0.80133735     0.30600
H1185       H  0.60032188  0.48539064  0.84470915     0.38200
H1186       H  0.60033904  0.57388472  0.96592741     0.30100
H1187       H  0.62446338  0.57743016  0.82833153     0.30100
H1188       H  0.54214222  0.53071697  0.87370096     0.30400
Zr1189     Zr  0.47323154  0.42626461  0.38850877     2.17500
O1190       O  0.47734849  0.45603767  0.36946898    -0.52000
O1191       O  0.50679712  0.44384311  0.37605195    -0.75200
O1192       O  0.47842539  0.45033481  0.42235275    -0.82000
O1193       O  0.44849691  0.39896268  0.32396973    -0.83700
O1194       O  0.48084240  0.43825577  0.46206458    -0.79300
O1195       O  0.45972484  0.42717597  0.34600590    -0.91000
O1196       O  0.52171502  0.42757259  0.38841839    -0.76900
O1197       O  0.48934007  0.41847103  0.42145741    -0.86400
O1198       O  0.48074831  0.40408985  0.36788671    -0.86100
O1199       O  0.45013248  0.41287131  0.42395008    -0.72900
O1200       O  0.44333320  0.39923596  0.37529860    -0.85000
Zr1201     Zr  0.44351569  0.35448218  0.42511536     2.26400
Zr1202     Zr  0.46622596  0.40419733  0.45620748     2.06300
Zr1203     Zr  0.45079129  0.37682207  0.35536495     2.10000
Zr1204     Zr  0.49617710  0.39579423  0.40161462     1.78800
O1205       O  0.42245270  0.35987674  0.32751318    -0.93800
O1206       O  0.51924679  0.40406330  0.43767206    -0.41600
O1207       O  0.46633689  0.36832840  0.38909917    -0.78200
O1208       O  0.47394550  0.38146825  0.43788007    -0.96900
O1209       O  0.43615512  0.37693916  0.44455904    -0.90200
O1210       O  0.42811768  0.36258188  0.39096220    -0.93100
C1211       C  0.52183508  0.44239831  0.37866886     1.00700
C1212       C  0.45189166  0.41632025  0.32581190     1.13600
C1213       C  0.48214754  0.45189981  0.44745941     1.04400
O1214       O  0.49306345  0.41517071  0.48696005    -0.95200
O1215       O  0.45979710  0.38176625  0.49113093    -0.91000
O1216       O  0.44706942  0.35195712  0.47356486    -0.84100
C1217       C  0.45306521  0.36375504  0.49332994     1.11000
O1218       O  0.41000505  0.40800879  0.40299937    -0.97200
Zr1219     Zr  0.42080660  0.38502446  0.41074716     1.88900
O1220       O  0.40843282  0.33398456  0.42858651    -0.73900
O1221       O  0.44655746  0.40977715  0.48775361    -0.53100
O1222       O  0.40636427  0.38966550  0.45066956    -0.97800
O1223       O  0.39776927  0.37570656  0.37438103    -0.55000
O1224       O  0.39571268  0.35336773  0.42339315    -0.74400
C1225       C  0.39417379  0.33698328  0.42784669     0.98000
O1226       O  0.44469258  0.32733484  0.44476708    -0.63200
O1227       O  0.47175051  0.37814680  0.31938079    -0.58000
O1228       O  0.44324870  0.33224624  0.39196574    -0.94700
O1229       O  0.44304071  0.34343620  0.35038693    -0.93100
O1230       O  0.51144053  0.39175220  0.36221251    -0.93500
O1231       O  0.50560869  0.37167422  0.40808189    -0.92200
C1232       C  0.44217036  0.33051593  0.36644630     1.16800
H1233       H  0.48887320  0.40967525  0.35244196     0.32800
H1234       H  0.47993797  0.37756318  0.45132871     0.43600
H1235       H  0.41688399  0.35147573  0.38409277     0.37100
H1236       H  0.44695873  0.42200426  0.43120688     0.33600
H1237       H  0.53192214  0.41168521  0.42905655     0.25400
H1238       H  0.43595054  0.39684800  0.49242077     0.31300
H1239       H  0.40562884  0.38000734  0.46360103     0.37200
H1240       H  0.50157383  0.37955409  0.35421226     0.31700
H1241       H  0.46444502  0.36573192  0.31004377     0.30600
H1242       H  0.42742754  0.35878985  0.30993796     0.32300
H1243       H  0.39384856  0.36219303  0.37051846     0.31200
H1244       H  0.49465474  0.35962698  0.40136206     0.35200
H1245       H  0.43362952  0.31569435  0.43731148     0.28000
H1246       H  0.48961978  0.46642387  0.37658306     0.32200
H1247       H  0.39612175  0.40102335  0.40701272     0.35000
H1248       H  0.47208493  0.38767645  0.30655799     0.27700
H1249       H  0.45614422  0.32766711  0.43700398     0.40500
H1250       H  0.48822101  0.41707284  0.50416831     0.30600
H1251       H  0.51774728  0.41342970  0.44863424     0.38200
H1252       H  0.40546134  0.38291016  0.35866005     0.30100
H1253       H  0.45438079  0.41429521  0.50418155     0.30100
H1254       H  0.46735781  0.45804276  0.37781691     0.30400
Zr1255     Zr  0.41041546  0.48821896  0.12026859     2.17500
O1256       O  0.43907300  0.48810204  0.13576270    -0.52000
O1257       O  0.42766714  0.52162875  0.13334614    -0.75200
O1258       O  0.43457685  0.49567941  0.08558540    -0.82000
O1259       O  0.38393337  0.46350494  0.18518709    -0.83700
O1260       O  0.42178473  0.49757029  0.04628962    -0.79300
O1261       O  0.41264017  0.47668852  0.16392438    -0.91000
O1262       O  0.41029749  0.53579005  0.12278764    -0.76900
O1263       O  0.40188079  0.50438754  0.08819625    -0.86400
O1264       O  0.38799909  0.49500169  0.14176034    -0.86100
O1265       O  0.39728684  0.46569466  0.08429593    -0.72900
O1266       O  0.38394543  0.45793085  0.13355498    -0.85000
Zr1267     Zr  0.33868347  0.45748084  0.08465866     2.26400
Zr1268     Zr  0.38786476  0.48184863  0.05291317     2.06300
Zr1269     Zr  0.36119583  0.46466801  0.15409979     2.10000
Zr1270     Zr  0.37884807  0.51030259  0.10895065     1.78800
O1271       O  0.34548859  0.43622032  0.18222379    -0.93800
O1272       O  0.38795742  0.53590617  0.07625078    -0.41600
O1273       O  0.35188752  0.47992089  0.12106458    -0.78200
O1274       O  0.36476450  0.48850595  0.07216883    -0.96900
O1275       O  0.36160019  0.45115621  0.06458651    -0.90200
O1276       O  0.34757509  0.44236951  0.11820789    -0.93100
C1277       C  0.42549272  0.53631635  0.13164326     1.00700
C1278       C  0.40169719  0.46821856  0.18392300     1.13600
C1279       C  0.43569546  0.49923920  0.06043942     1.04400
O1280       O  0.39602970  0.50962225  0.02488525    -0.95200
O1281       O  0.36472562  0.47273330  0.01825841    -0.91000
O1282       O  0.33481600  0.45701566  0.03597464    -0.84100
C1283       C  0.34652389  0.46360705  0.01610569     1.11000
O1284       O  0.39277519  0.42519311  0.10967887    -0.97200
Zr1285     Zr  0.37022403  0.43579632  0.09771137     1.88900
O1286       O  0.31915867  0.42278872  0.07843896    -0.73900
O1287       O  0.39523078  0.46563078  0.01780000    -0.53100
O1288       O  0.37803400  0.42289517  0.05887858    -0.97800
O1289       O  0.35882205  0.41108928  0.13225352    -0.55000
O1290       O  0.33949266  0.41104163  0.08147876    -0.74400
C1291       C  0.32284836  0.40900078  0.07768669     0.98000
O1292       O  0.31469195  0.46595244  0.07142278    -0.63200
O1293       O  0.36228112  0.48575045  0.18966047    -0.58000
O1294       O  0.31380707  0.44837233  0.11790241    -0.94700
O1295       O  0.32727210  0.45485694  0.15921677    -0.93100
O1296       O  0.37286716  0.52254188  0.15001993    -0.93500
O1297       O  0.35483946  0.51976500  0.10178399    -0.92200
C1298       C  0.31285531  0.44922633  0.14338683     1.16800
H1299       H  0.39354288  0.50298706  0.15729924     0.32800
H1300       H  0.36038325  0.49419354  0.05890482     0.43600
H1301       H  0.33662956  0.43076150  0.12470362     0.37100
H1302       H  0.40667658  0.46305896  0.07667516     0.33600
H1303       H  0.40162232  0.54056560  0.07237002     0.25400
H1304       H  0.40147920  0.47538715  0.00358233     0.31300
H1305       H  0.37959859  0.43174833  0.04413014     0.37200
H1306       H  0.37958243  0.53661880  0.14752673     0.31700
H1307       H  0.35067837  0.48681544  0.18709004     0.30600
H1308       H  0.34258817  0.44069178  0.19903092     0.32300
H1309       H  0.34468000  0.40439595  0.13128250     0.31200
H1310       H  0.34303859  0.50939858  0.11008408     0.35200
H1311       H  0.31322142  0.47267094  0.08696365     0.28000
H1312       H  0.45004500  0.50085274  0.13121667     0.32200
H1313       H  0.38653721  0.41153334  0.10445063     0.35000
H1314       H  0.35974202  0.47808992  0.20619016     0.27700
H1315       H  0.32109535  0.47621589  0.05789942     0.40500
H1316       H  0.40579333  0.52067675  0.03515900     0.30600
H1317       H  0.38120630  0.52941477  0.05965047     0.38200
H1318       H  0.36195920  0.41823315  0.14927528     0.30100
H1319       H  0.40554470  0.46365696  0.02502061     0.30100
H1320       H  0.44047237  0.47891499  0.12421648     0.30400
Zr1321     Zr  0.17489607  0.27675607  0.45385364     2.17500
O1322       O  0.16977866  0.30182845  0.47234749    -0.52000
O1323       O  0.14167859  0.26026153  0.46802254    -0.75200
O1324       O  0.16719507  0.29272868  0.41807151    -0.82000
O1325       O  0.20219081  0.27755221  0.51748002    -0.83700
O1326       O  0.16331601  0.27580594  0.38028351    -0.79300
O1327       O  0.19099327  0.29415081  0.49417344    -0.91000
O1328       O  0.12757682  0.22854785  0.45906234    -0.76900
O1329       O  0.15894534  0.25176537  0.42239657    -0.86400
O1330       O  0.16842963  0.24781157  0.47613375    -0.86100
O1331       O  0.19689692  0.28583971  0.41698469    -0.72900
O1332       O  0.20526697  0.28071592  0.46651740    -0.85000
Zr1333     Zr  0.20593780  0.23585226  0.41938240     2.26400
Zr1334     Zr  0.18107274  0.25976848  0.38651770     2.06300
Zr1335     Zr  0.19899864  0.25174187  0.48832003     2.10000
Zr1336     Zr  0.15311828  0.22305874  0.44373409     1.78800
O1337       O  0.22738738  0.26356127  0.51616010    -0.93800
O1338       O  0.12882590  0.20901864  0.40895052    -0.41600
O1339       O  0.18362578  0.22689339  0.45589953    -0.78200
O1340       O  0.17478839  0.23033996  0.40680789    -0.96900
O1341       O  0.21185690  0.26465501  0.39798646    -0.90200
O1342       O  0.22096582  0.26038443  0.45202999    -0.93100
C1343       C  0.12704698  0.24335571  0.46729341     1.00700
C1344       C  0.19916862  0.29172072  0.51464441     1.13600
C1345       C  0.16223661  0.28875757  0.39344756     1.04400
O1346       O  0.15387805  0.23999026  0.35779427    -0.95200
O1347       O  0.19228694  0.24725783  0.35214504    -0.91000
O1348       O  0.20688395  0.23220983  0.37102268    -0.84100
C1349       C  0.20112104  0.23781563  0.35078518     1.11000
O1350       O  0.23437618  0.32190599  0.43877430    -0.97200
Zr1351     Zr  0.22700552  0.28917529  0.43020495     1.88900
O1352       O  0.24082782  0.25131556  0.41450114    -0.73900
O1353       O  0.19634399  0.28538912  0.35358515    -0.53100
O1354       O  0.24110816  0.30918594  0.39083329    -0.97800
O1355       O  0.25166202  0.30462064  0.46415977    -0.55000
O1356       O  0.25248242  0.28345251  0.41652401    -0.74400
C1357       C  0.25462513  0.26881219  0.41375326     0.98000
O1358       O  0.19716318  0.20303653  0.40767529    -0.63200
O1359       O  0.17833170  0.23338611  0.52539469    -0.58000
O1360       O  0.21415767  0.21935797  0.45246107    -0.94700
O1361       O  0.20888841  0.22746141  0.49371139    -0.93100
O1362       O  0.14161335  0.20302187  0.48350956    -0.93500
O1363       O  0.14200327  0.18930107  0.43587280    -0.92200
C1364       C  0.21382394  0.21799903  0.47798118     1.16800
H1365       H  0.16056194  0.24553221  0.49176598     0.32800
H1366       H  0.16916273  0.22004608  0.39391444     0.43600
H1367       H  0.23263108  0.26130483  0.45864922     0.37100
H1368       H  0.19934047  0.29770711  0.40883436     0.33600
H1369       H  0.11653682  0.20174405  0.41865056     0.25400
H1370       H  0.21009259  0.28936282  0.35443209     0.31300
H1371       H  0.24354379  0.30115516  0.37831432     0.37200
H1372       H  0.13902941  0.21061625  0.49662455     0.31700
H1373       H  0.18168641  0.22336314  0.52923255     0.30600
H1374       H  0.22260171  0.25677936  0.53339398     0.32300
H1375       H  0.24448944  0.30289024  0.48094047     0.31200
H1376       H  0.15276277  0.18921915  0.42649759     0.35200
H1377       H  0.18797462  0.19495297  0.42166981     0.28000
H1378       H  0.15676284  0.29862102  0.46664096     0.32200
H1379       H  0.22315281  0.32049068  0.44878258     0.35000
H1380       H  0.18332530  0.24212361  0.54088863     0.27700
H1381       H  0.18916812  0.19986765  0.39143584     0.40500
H1382       H  0.15222203  0.22697663  0.35880354     0.30600
H1383       H  0.12829025  0.21998297  0.40093268     0.38200
H1384       H  0.25731466  0.29626090  0.46633230     0.30100
H1385       H  0.19202756  0.27900019  0.33606591     0.30100
H1386       H  0.17849538  0.31361391  0.46227605     0.30400
Zr1387     Zr  0.23506406  0.40342644  0.72206725     2.17500
O1388       O  0.20569576  0.37575135  0.70598722    -0.52000
O1389       O  0.21761321  0.41958312  0.70966933    -0.75200
O1390       O  0.21168426  0.38603544  0.75798484    -0.82000
O1391       O  0.26244254  0.40626054  0.65730769    -0.83700
O1392       O  0.22390970  0.40223200  0.79653430    -0.79300
O1393       O  0.23372074  0.38951182  0.67840200    -0.91000
O1394       O  0.23548558  0.45136873  0.71829562    -0.76900
O1395       O  0.24357963  0.42792617  0.75427803    -0.86400
O1396       O  0.25755427  0.43294216  0.70086658    -0.86100
O1397       O  0.24838090  0.39426560  0.75826421    -0.72900
O1398       O  0.26186629  0.40031484  0.70840677    -0.85000
Zr1399     Zr  0.30708011  0.44429763  0.75771768     2.26400
Zr1400     Zr  0.25788129  0.41971511  0.78971942     2.06300
Zr1401     Zr  0.28484432  0.43019037  0.68841529     2.10000
Zr1402     Zr  0.26655287  0.45708298  0.73395885     1.78800
O1403       O  0.29975476  0.41882197  0.65664471    -0.93800
O1404       O  0.25499595  0.46982437  0.76878238    -0.41600
O1405       O  0.29391340  0.45423625  0.72194003    -0.78200
O1406       O  0.28109566  0.44940840  0.77030793    -0.96900
O1407       O  0.28386965  0.41504656  0.77764383    -0.90200
O1408       O  0.29814804  0.42068609  0.72387056    -0.93100
C1409       C  0.22003064  0.43656969  0.71037211     1.00700
C1410       C  0.24491194  0.39264415  0.65838582     1.13600
C1411       C  0.21032492  0.38906375  0.78293464     1.04400
O1412       O  0.25276934  0.44159680  0.81728828    -0.95200
O1413       O  0.28168234  0.43127416  0.82408101    -0.91000
O1414       O  0.31148077  0.44738664  0.80608318    -0.84100
C1415       C  0.29990858  0.44098885  0.82605769     1.11000
O1416       O  0.25022166  0.35841562  0.73612346    -0.97200
Zr1417     Zr  0.27514212  0.39140344  0.74420674     1.88900
O1418       O  0.32642890  0.42855943  0.76185916    -0.73900
O1419       O  0.24630554  0.39495558  0.82409553    -0.53100
O1420       O  0.27063506  0.37118109  0.78287675    -0.97800
O1421       O  0.28580117  0.37891832  0.70792047    -0.55000
O1422       O  0.30573987  0.39656803  0.75860134    -0.74400
C1423       C  0.32246237  0.41095935  0.76231557     0.98000
O1424       O  0.33117386  0.47546265  0.77484322    -0.63200
O1425       O  0.28351512  0.45191900  0.65572542    -0.58000
O1426       O  0.33166819  0.46250844  0.72507397    -0.94700
O1427       O  0.31932144  0.45376622  0.68338884    -0.93100
O1428       O  0.27487085  0.47764257  0.69473767    -0.93500
O1429       O  0.28834433  0.49071080  0.74388179    -0.92200
C1430       C  0.33322755  0.46384924  0.69959423     1.16800
H1431       H  0.25200192  0.43548349  0.68542112     0.32800
H1432       H  0.28554553  0.45944607  0.78351152     0.43600
H1433       H  0.30896336  0.41992085  0.71707816     0.37100
H1434       H  0.23923263  0.38220156  0.76612626     0.33600
H1435       H  0.24970425  0.47687720  0.75911425     0.25400
H1436       H  0.25471543  0.38931843  0.82272585     0.31300
H1437       H  0.27695090  0.38023477  0.79777533     0.37200
H1438       H  0.26685323  0.48373067  0.69606124     0.31700
H1439       H  0.29605081  0.46384302  0.65715447     0.30600
H1440       H  0.30011755  0.42527108  0.63962725     0.32300
H1441       H  0.28540734  0.36732553  0.71534195     0.31200
H1442       H  0.30085872  0.49151483  0.74688309     0.35200
H1443       H  0.34359687  0.47591837  0.77265448     0.28000
H1444       H  0.19505570  0.37745991  0.71249621     0.32200
H1445       H  0.24193317  0.35942666  0.72239392     0.35000
H1446       H  0.28392089  0.44647524  0.63821753     0.27700
H1447       H  0.33155554  0.48500031  0.76197796     0.40500
H1448       H  0.24775532  0.43466100  0.83436923     0.30600
H1449       H  0.24361468  0.45849173  0.77631975     0.38200
H1450       H  0.27534484  0.37403282  0.69461322     0.30100
H1451       H  0.24977787  0.40189382  0.84129354     0.30100
H1452       H  0.20451070  0.36460408  0.71604262     0.30400
Zr1453     Zr  0.25986129  0.19069853  0.05457137     2.17500
O1454       O  0.28816626  0.19078292  0.03713264    -0.52000
O1455       O  0.24370489  0.15671864  0.04339089    -0.75200
O1456       O  0.27772211  0.18403640  0.08863560    -0.82000
O1457       O  0.25572655  0.21431416  0.99008424    -0.83700
O1458       O  0.26574051  0.18477250  0.12928547    -0.79300
O1459       O  0.27204106  0.20131148  0.00975955    -0.91000
O1460       O  0.21197370  0.14286025  0.05228057    -0.76900
O1461       O  0.23588923  0.17484424  0.08758376    -0.86400
O1462       O  0.23025227  0.18368802  0.03427356    -0.86100
O1463       O  0.26951492  0.21341954  0.09038475    -0.72900
O1464       O  0.26306851  0.22094377  0.04180290    -0.85000
Zr1465     Zr  0.21846723  0.22095791  0.09236518     2.26400
Zr1466     Zr  0.24474316  0.19755067  0.12282728     2.06300
Zr1467     Zr  0.23309796  0.21394065  0.02250809     2.10000
Zr1468     Zr  0.20646397  0.16833899  0.06786569     1.78800
O1469       O  0.24648092  0.24340066  0.99642280    -0.93800
O1470       O  0.19272225  0.14332929  0.10180164    -0.41600
O1471       O  0.20927770  0.19846054  0.05623793    -0.78200
O1472       O  0.21435969  0.19015222  0.10463258    -0.96900
O1473       O  0.24814319  0.22795440  0.11166598    -0.90200
O1474       O  0.24193293  0.23625558  0.05826959    -0.93100
C1475       C  0.22673451  0.14210373  0.04441145     1.00700
C1476       C  0.26870055  0.20948577  0.99011490     1.13600
C1477       C  0.27688577  0.18198771  0.11416362     1.04400
O1478       O  0.22926641  0.16945145  0.15164923    -0.95200
O1479       O  0.22829372  0.20328473  0.15779323    -0.91000
O1480       O  0.21339418  0.21852885  0.14092036    -0.84100
C1481       C  0.21822754  0.21135352  0.16037647     1.11000
O1482       O  0.30526367  0.25316058  0.07139408    -0.97200
Zr1483     Zr  0.27157275  0.24307480  0.07785390     1.88900
O1484       O  0.23336349  0.25586597  0.09666102    -0.73900
O1485       O  0.26770581  0.21785253  0.15649327    -0.53100
O1486       O  0.28941927  0.25547526  0.11925398    -0.97800
O1487       O  0.28655453  0.26732241  0.04303174    -0.55000
O1488       O  0.26529350  0.26836723  0.09006065    -0.74400
C1489       C  0.25061041  0.26999853  0.09513197     0.98000
O1490       O  0.18780493  0.21778363  0.10508306    -0.63200
O1491       O  0.21143962  0.19484604  0.98679868    -0.58000
O1492       O  0.19838743  0.22462082  0.05989628    -0.94700
O1493       O  0.20837573  0.22294383  0.01811374    -0.93100
O1494       O  0.18615674  0.15740812  0.02839190    -0.93500
O1495       O  0.17310559  0.15807951  0.07738518    -0.92200
C1496       C  0.19742211  0.22535552  0.03441480     1.16800
H1497       H  0.22767886  0.17561773  0.01882816     0.32800
H1498       H  0.20444298  0.18414236  0.11803921     0.43600
H1499       H  0.24223921  0.24764536  0.05155081     0.37100
H1500       H  0.28178226  0.21637711  0.09753849     0.33600
H1501       H  0.18353546  0.13163348  0.09204289     0.25400
H1502       H  0.26607906  0.20905508  0.17137552     0.31300
H1503       H  0.28511786  0.26403122  0.12680880     0.37200
H1504       H  0.18904373  0.14813517  0.01966412     0.31700
H1505       H  0.21750280  0.20213967  0.97028433     0.30600
H1506       H  0.23960579  0.23953593  0.97917563     0.32300
H1507       H  0.27626562  0.26956576  0.03644119     0.31200
H1508       H  0.17345053  0.16949021  0.08532340     0.35200
H1509       H  0.18113667  0.20584847  0.11575422     0.28000
H1510       H  0.28653403  0.17807976  0.04167448     0.32200
H1511       H  0.31235781  0.26698481  0.07578577     0.35000
H1512       H  0.21255996  0.18320309  0.98541079     0.27700
H1513       H  0.19086556  0.22828740  0.11784983     0.40500
H1514       H  0.23481482  0.17413382  0.16955353     0.30600
H1515       H  0.20325522  0.14098833  0.10681965     0.38200
H1516       H  0.28882595  0.26064193  0.02814839     0.30100
H1517       H  0.28042178  0.22158040  0.14887764     0.30100
H1518       H  0.29904777  0.20006661  0.04816089     0.30400
Zr1519     Zr  0.38201135  0.25054438  0.78369339     2.17500
O1520       O  0.35185003  0.22240919  0.79672844    -0.52000
O1521       O  0.39740019  0.23272008  0.79687320    -0.75200
O1522       O  0.36763564  0.22646561  0.74838235    -0.82000
O1523       O  0.38190716  0.27657710  0.84736845    -0.83700
O1524       O  0.38117989  0.24089527  0.70914091    -0.79300
O1525       O  0.36775368  0.24739207  0.82732062    -0.91000
O1526       O  0.42882192  0.25011385  0.78592035    -0.76900
O1527       O  0.40700919  0.25974686  0.75202961    -0.86400
O1528       O  0.41093710  0.27270140  0.80612699    -0.86100
O1529       O  0.37321414  0.26417536  0.74761795    -0.72900
O1530       O  0.37831771  0.27690704  0.79719971    -0.85000
Zr1531     Zr  0.42341864  0.32312015  0.74978514     2.26400
Zr1532     Zr  0.39919304  0.27457049  0.71684715     2.06300
Zr1533     Zr  0.40744549  0.29955569  0.81845605     2.10000
Zr1534     Zr  0.43564583  0.28225528  0.77371299     1.78800
O1535       O  0.39552491  0.31631608  0.84575800    -0.93800
O1536       O  0.45214968  0.27458154  0.73947125    -0.41600
O1537       O  0.43225816  0.30916886  0.78585462    -0.78200
O1538       O  0.42868399  0.29727038  0.73711604    -0.96900
O1539       O  0.39444764  0.30051582  0.72888678    -0.90200
O1540       O  0.39901839  0.31379095  0.78284573    -0.93100
C1541       C  0.41411109  0.23474044  0.79439885     1.00700
C1542       C  0.36933663  0.25862348  0.84650125     1.13600
C1543       C  0.37017545  0.22617711  0.72310465     1.04400
O1544       O  0.41918238  0.26647690  0.68972585    -0.95200
O1545       O  0.41475812  0.29789089  0.68271606    -0.91000
O1546       O  0.43119528  0.32719928  0.70189980    -0.84100
C1547       C  0.42583694  0.31599909  0.68152469     1.11000
O1548       O  0.33654892  0.26701202  0.76855108    -0.97200
Zr1549     Zr  0.37007581  0.29088207  0.76164124     1.88900
O1550       O  0.40753504  0.34239442  0.74662223    -0.73900
O1551       O  0.37599367  0.26903699  0.68182139    -0.53100
O1552       O  0.35104918  0.28654770  0.72179168    -0.97800
O1553       O  0.35533121  0.29815099  0.79888947    -0.55000
O1554       O  0.37547885  0.32201179  0.74916153    -0.74400
C1555       C  0.39006591  0.33874608  0.74624358     0.98000
O1556       O  0.45069005  0.35181876  0.73119973    -0.63200
O1557       O  0.42581937  0.29780809  0.85589357    -0.58000
O1558       O  0.44465274  0.34465005  0.78368582    -0.94700
O1559       O  0.43310717  0.33270717  0.82491190    -0.93100
O1560       O  0.45462140  0.28697275  0.81372257    -0.93500
O1561       O  0.46947385  0.30606910  0.77027547    -0.92200
C1562       C  0.44515319  0.34590907  0.80920762     1.16800
H1563       H  0.41315177  0.26688832  0.82157461     0.32800
H1564       H  0.43899376  0.30173851  0.72432201     0.43600
H1565       H  0.39821394  0.32448330  0.78995793     0.37100
H1566       H  0.36137552  0.25472450  0.73959848     0.33600
H1567       H  0.45973698  0.27006691  0.74950236     0.25400
H1568       H  0.38005296  0.26418858  0.66648228     0.31300
H1569       H  0.34606026  0.27304262  0.71649714     0.37200
H1570       H  0.44858524  0.29085823  0.82766224     0.31700
H1571       H  0.42651368  0.30742504  0.86877711     0.30600
H1572       H  0.39954235  0.31551629  0.86416109     0.32300
H1573       H  0.36150908  0.31229812  0.79910265     0.31200
H1574       H  0.46973969  0.31688821  0.76047693     0.35200
H1575       H  0.45023062  0.36280563  0.73920776     0.28000
H1576       H  0.35365003  0.21124308  0.79397953     0.32200
H1577       H  0.33685380  0.25586267  0.77635719     0.35000
H1578       H  0.41732895  0.28530959  0.86455291     0.27700
H1579       H  0.46224480  0.35228875  0.73882634     0.40500
H1580       H  0.41127315  0.25985813  0.67392681     0.30600
H1581       H  0.44195193  0.26291807  0.73075813     0.38200
H1582       H  0.36026985  0.29500290  0.81507038     0.30100
H1583       H  0.36381341  0.25790436  0.68788044     0.30100
H1584       H  0.34234324  0.22110509  0.78315583     0.30400
Zr1585     Zr  0.50585964  0.94067980  0.11318118     2.17500
O1586       O  0.51036102  0.97154437  0.12779582    -0.52000
O1587       O  0.47244279  0.92668511  0.12646872    -0.75200
O1588       O  0.49920720  0.95786197  0.07826437    -0.82000
O1589       O  0.53251381  0.93936006  0.17627144    -0.83700
O1590       O  0.49590593  0.94256697  0.03901005    -0.79300
O1591       O  0.51730948  0.95373459  0.15730964    -0.91000
O1592       O  0.45697773  0.89484617  0.11757207    -0.76900
O1593       O  0.48771784  0.91538728  0.08281356    -0.86400
O1594       O  0.49844956  0.91169320  0.13597310    -0.86100
O1595       O  0.52676356  0.94763749  0.07545583    -0.72900
O1596       O  0.53597772  0.94330254  0.12434079    -0.85000
Zr1597     Zr  0.53234509  0.89573057  0.07710807     2.26400
Zr1598     Zr  0.50853425  0.92145807  0.04580740     2.06300
Zr1599     Zr  0.52854008  0.91393053  0.14619551     2.10000
Zr1600     Zr  0.48116494  0.88659770  0.10482969     1.78800
O1601       O  0.55603069  0.92529549  0.17578840    -0.93800
O1602       O  0.45509706  0.87028861  0.07294255    -0.41600
O1603       O  0.51128787  0.88869566  0.11487752    -0.78200
O1604       O  0.50148051  0.89201375  0.06676447    -0.96900
O1605       O  0.53901113  0.92468354  0.05551220    -0.90200
O1606       O  0.54949055  0.92050679  0.10890574    -0.93100
C1607       C  0.45721927  0.91014031  0.12539050     1.00700
C1608       C  0.52703296  0.95184963  0.17617321     1.13600
C1609       C  0.49551710  0.95554200  0.05315545     1.04400
O1610       O  0.47828104  0.90182176  0.02289905    -0.95200
O1611       O  0.51431117  0.90430589  0.01159546    -0.91000
O1612       O  0.53106449  0.89095020  0.02856316    -0.84100
C1613       C  0.52312983  0.89490509  0.00911953     1.11000
O1614       O  0.56904432  0.98365189  0.09301337    -0.97200
Zr1615     Zr  0.55641817  0.94940390  0.08679431     1.88900
O1616       O  0.56684443  0.90909980  0.06973454    -0.73900
O1617       O  0.52365255  0.94222362  0.00731554    -0.53100
O1618       O  0.56936028  0.96802663  0.04599757    -0.97800
O1619       O  0.58114030  0.96300675  0.12105385    -0.55000
O1620       O  0.57968184  0.94140599  0.07036448    -0.74400
C1621       C  0.58100977  0.92631704  0.06744116     0.98000
O1622       O  0.52206425  0.86282127  0.06370848    -0.63200
O1623       O  0.50690960  0.89419545  0.18162351    -0.58000
O1624       O  0.53962172  0.87877165  0.11084849    -0.94700
O1625       O  0.53790720  0.88960194  0.15199996    -0.93100
O1626       O  0.46975672  0.87009068  0.14744232    -0.93500
O1627       O  0.46931875  0.85232824  0.10157379    -0.92200
C1628       C  0.54066797  0.87855952  0.13638823     1.16800
H1629       H  0.49108415  0.91011562  0.15193188     0.32800
H1630       H  0.49493819  0.88154947  0.05431737     0.43600
H1631       H  0.56101720  0.92081176  0.11488631     0.37100
H1632       H  0.52988282  0.95966119  0.06716106     0.33600
H1633       H  0.45312323  0.88053487  0.06537997     0.25400
H1634       H  0.51297796  0.94031517  0.99554532     0.31300
H1635       H  0.56478643  0.95844168  0.03148009     0.37200
H1636       H  0.45908238  0.87212269  0.15272992     0.31700
H1637       H  0.50654992  0.88176136  0.18031877     0.30600
H1638       H  0.55075236  0.91825425  0.19273360     0.32300
H1639       H  0.58992296  0.95808121  0.11711741     0.31200
H1640       H  0.48082737  0.85137617  0.09750952     0.35200
H1641       H  0.51631906  0.85479249  0.07977861     0.28000
H1642       H  0.49849198  0.97163896  0.12304638     0.32200
H1643       H  0.58288043  0.98982163  0.08885314     0.35000
H1644       H  0.51396363  0.89995010  0.19835426     0.27700
H1645       H  0.51093920  0.85907067  0.05183212     0.40500
H1646       H  0.48062225  0.90677070  0.00436464     0.30600
H1647       H  0.46050934  0.86648953  0.05800510     0.38200
H1648       H  0.57457583  0.95638304  0.13773892     0.30100
H1649       H  0.52909295  0.95546543  0.01410332     0.30100
H1650       H  0.52039411  0.98121282  0.11596103     0.30400
Zr1651     Zr  0.56978646  0.06442893  0.37984194     2.17500
O1652       O  0.54146019  0.03555893  0.36396923    -0.52000
O1653       O  0.55203192  0.08058076  0.37076375    -0.75200
O1654       O  0.54533953  0.04786222  0.41461303    -0.82000
O1655       O  0.59647629  0.06875340  0.31452239    -0.83700
O1656       O  0.55963704  0.05977435  0.45438006    -0.79300
O1657       O  0.56714019  0.05348703  0.33413795    -0.91000
O1658       O  0.56890053  0.11149309  0.38431616    -0.76900
O1659       O  0.57867504  0.08673882  0.41523529    -0.86400
O1660       O  0.59133565  0.09523362  0.36102957    -0.86100
O1661       O  0.58371091  0.05311179  0.41232802    -0.72900
O1662       O  0.59653781  0.06242321  0.36308762    -0.85000
Zr1663     Zr  0.64191285  0.10442181  0.41465031     2.26400
Zr1664     Zr  0.59337876  0.07626036  0.44714755     2.06300
Zr1665     Zr  0.61846011  0.09342633  0.34532161     2.10000
Zr1666     Zr  0.60062020  0.11723000  0.39720016     1.78800
O1667       O  0.63407624  0.08695648  0.30848565    -0.93800
O1668       O  0.59020159  0.12906419  0.43457604    -0.41600
O1669       O  0.62787856  0.11554006  0.38159743    -0.78200
O1670       O  0.61548511  0.10751005  0.43071014    -0.96900
O1671       O  0.61995224  0.07355976  0.43192457    -0.90200
O1672       O  0.63297712  0.08297423  0.37773868    -0.93100
C1673       C  0.55378617  0.09707687  0.37469914     1.00700
C1674       C  0.57854075  0.05612377  0.31463412     1.13600
C1675       C  0.54490232  0.04955981  0.44009885     1.04400
O1676       O  0.58590432  0.09243517  0.48213625    -0.95200
O1677       O  0.61692425  0.08755373  0.48153980    -0.91000
O1678       O  0.64641397  0.10569308  0.46317691    -0.84100
C1679       C  0.63504799  0.09822420  0.48323359     1.11000
O1680       O  0.58800419  0.01842020  0.38800892    -0.97200
Zr1681     Zr  0.61111700  0.05215381  0.39537650     1.88900
O1682       O  0.66238832  0.09000166  0.41588516    -0.73900
O1683       O  0.58411614  0.04814524  0.47505427    -0.53100
O1684       O  0.60869759  0.03101845  0.43183268    -0.97800
O1685       O  0.61746226  0.03939965  0.35502473    -0.55000
O1686       O  0.64382975  0.05934594  0.40153174    -0.74400
C1687       C  0.65993639  0.07360105  0.40872398     0.98000
O1688       O  0.66519002  0.13598768  0.43193618    -0.63200
O1689       O  0.61504173  0.11560241  0.31578139    -0.58000
O1690       O  0.66637131  0.12304418  0.38200352    -0.94700
O1691       O  0.65265412  0.11723686  0.34093220    -0.93100
O1692       O  0.60872173  0.14025213  0.36095848    -0.93500
O1693       O  0.62370832  0.15004815  0.40955948    -0.92200
C1694       C  0.66714730  0.12579755  0.35670086     1.16800
H1695       H  0.58541522  0.09849706  0.34667769     0.32800
H1696       H  0.61981803  0.11666856  0.44520422     0.43600
H1697       H  0.64393299  0.08328921  0.36943613     0.37100
H1698       H  0.57431689  0.04061289  0.41887816     0.33600
H1699       H  0.58789475  0.13903949  0.42678298     0.25400
H1700       H  0.59630291  0.04870439  0.47978308     0.31300
H1701       H  0.59648399  0.02762963  0.44085101     0.37200
H1702       H  0.59634868  0.13862929  0.35474983     0.31700
H1703       H  0.62829580  0.12514315  0.31055877     0.30600
H1704       H  0.63314222  0.09428006  0.29322528     0.32300
H1705       H  0.62800576  0.05069550  0.34600980     0.31200
H1706       H  0.63551236  0.14971003  0.41390442     0.35200
H1707       H  0.66784790  0.14517158  0.41716946     0.28000
H1708       H  0.53036323  0.03706070  0.36870538     0.32200
H1709       H  0.57572534  0.01805878  0.38470802     0.35000
H1710       H  0.60925783  0.10814823  0.29933329     0.27700
H1711       H  0.65801066  0.13920016  0.44497889     0.40500
H1712       H  0.59481278  0.10627609  0.47922359     0.30600
H1713       H  0.57727600  0.11840679  0.43910575     0.38200
H1714       H  0.60622000  0.03570637  0.34340426     0.30100
H1715       H  0.57968450  0.05098739  0.49195245     0.30100
H1716       H  0.54029463  0.02498613  0.37541959     0.30400
Zr1717     Zr  0.79932193  0.08759293  0.04842482     2.17500
O1718       O  0.79975105  0.11670122  0.03359810    -0.52000
O1719       O  0.83299742  0.10604209  0.03668001    -0.75200
O1720       O  0.80620333  0.11063836  0.08459934    -0.82000
O1721       O  0.77767087  0.06225700  0.98164782    -0.83700
O1722       O  0.80351606  0.09556362  0.12397698    -0.79300
O1723       O  0.78742446  0.08981350  0.00482954    -0.91000
O1724       O  0.84764130  0.08959427  0.04967657    -0.76900
O1725       O  0.81325112  0.07838247  0.08288014    -0.86400
O1726       O  0.80896282  0.06700487  0.02783358    -0.86100
O1727       O  0.77457781  0.07228452  0.08147983    -0.72900
O1728       O  0.77074253  0.06064025  0.03186583    -0.85000
Zr1729     Zr  0.76901698  0.01435306  0.07994073     2.26400
Zr1730     Zr  0.78846933  0.06194190  0.11513327     2.06300
Zr1731     Zr  0.78024586  0.03976962  0.01191256     2.10000
Zr1732     Zr  0.82250019  0.05760774  0.06290428     1.78800
O1733       O  0.75600357  0.02452214  0.97740637    -0.93800
O1734       O  0.84481532  0.06946204  0.10022976    -0.41600
O1735       O  0.79391144  0.03005100  0.04678442    -0.78200
O1736       O  0.79824408  0.04098929  0.09633897    -0.96900
O1737       O  0.75963018  0.03524100  0.09936803    -0.90200
O1738       O  0.75566463  0.02395531  0.04469013    -0.93100
C1739       C  0.84796767  0.10455106  0.04002390     1.00700
C1740       C  0.78039544  0.07935721  0.98397627     1.13600
C1741       C  0.80769650  0.11051528  0.11015716     1.04400
O1742       O  0.81319331  0.06867063  0.14814621    -0.95200
O1743       O  0.77687799  0.03727168  0.14876067    -0.91000
O1744       O  0.76656155  0.00853322  0.12844397    -0.84100
C1745       C  0.77008910  0.01911686  0.14930380     1.11000
O1746       O  0.73463108  0.06681669  0.05454065    -0.97200
Zr1747     Zr  0.74637634  0.04486499  0.06454175     1.88900
O1748       O  0.73421822  0.99320435  0.08201137    -0.73900
O1749       O  0.76785843  0.06828741  0.14370665    -0.53100
O1750       O  0.73038106  0.04940625  0.10272979    -0.97800
O1751       O  0.72482407  0.03572818  0.02638060    -0.55000
O1752       O  0.72170866  0.01269499  0.07581334    -0.74400
C1753       C  0.72005123  0.99626669  0.08036594     0.98000
O1754       O  0.77893442  0.99163423  0.09433161    -0.63200
O1755       O  0.80508290  0.04407017  0.98035051    -0.58000
O1756       O  0.76218954  0.99056918  0.04581263    -0.94700
O1757       O  0.77163134  0.00619894  0.00589195    -0.93100
O1758       O  0.83803446  0.05173858  0.02536790    -0.93500
O1759       O  0.83480294  0.03644996  0.07478518    -0.92200
C1760       C  0.76499641  0.99105458  0.02056828     1.16800
H1761       H  0.81784480  0.07324997  0.01332638     0.32800
H1762       H  0.80347166  0.03658954  0.11027856     0.43600
H1763       H  0.74482765  0.01308321  0.03659496     0.37100
H1764       H  0.77112917  0.08122402  0.08876149     0.33600
H1765       H  0.85749620  0.07346735  0.09223298     0.25400
H1766       H  0.75590927  0.05579078  0.14540340     0.31300
H1767       H  0.72633891  0.03793218  0.11407415     0.37200
H1768       H  0.83000946  0.03787125  0.02165025     0.31700
H1769       H  0.80740227  0.03333705  0.98414389     0.30600
H1770       H  0.76273885  0.02259898  0.96226462     0.32300
H1771       H  0.71686541  0.02159787  0.02731339     0.31200
H1772       H  0.82337517  0.02441446  0.08060081     0.35200
H1773       H  0.78604325  0.99048443  0.07902138     0.28000
H1774       H  0.81240339  0.12747464  0.03887181     0.32200
H1775       H  0.72066647  0.05947861  0.05793232     0.35000
H1776       H  0.79868648  0.04095076  0.96273903     0.27700
H1777       H  0.78898450  0.99853346  0.10791190     0.40500
H1778       H  0.81011685  0.07453965  0.16328536     0.30600
H1779       H  0.84549609  0.08162890  0.10546185     0.38200
H1780       H  0.73317080  0.03817710  0.01065450     0.30100
H1781       H  0.77381850  0.07060039  0.16159017     0.30100
H1782       H  0.79037365  0.11788413  0.04501083     0.30400
Zr1783     Zr  0.73920976  0.15397520  0.78002258     2.17500
O1784       O  0.76971673  0.16069396  0.79943472    -0.52000
O1785       O  0.75558366  0.18739519  0.79348089    -0.75200
O1786       O  0.76332696  0.15987612  0.74578953    -0.82000
O1787       O  0.71135857  0.12633637  0.84320166    -0.83700
O1788       O  0.75061167  0.16127772  0.70612131    -0.79300
O1789       O  0.73971426  0.13822849  0.82128920    -0.91000
O1790       O  0.73810976  0.20151553  0.78371324    -0.76900
O1791       O  0.73074746  0.17005892  0.74766341    -0.86400
O1792       O  0.71642634  0.16041883  0.80110435    -0.86100
O1793       O  0.72651791  0.13175511  0.74339720    -0.72900
O1794       O  0.71265604  0.12354625  0.79242755    -0.85000
Zr1795     Zr  0.66768856  0.12277271  0.74313333     2.26400
Zr1796     Zr  0.71693133  0.14774793  0.71201265     2.06300
Zr1797     Zr  0.68959530  0.12984985  0.81280131     2.10000
Zr1798     Zr  0.70746111  0.17576329  0.76798673     1.78800
O1799       O  0.67328313  0.10246187  0.84271283    -0.93800
O1800       O  0.71864543  0.20118140  0.73462340    -0.41600
O1801       O  0.68051336  0.14520503  0.77956718    -0.78200
O1802       O  0.69356275  0.15404397  0.73102791    -0.96900
O1803       O  0.69095232  0.11693148  0.72328224    -0.90200
O1804       O  0.67644604  0.10755416  0.77682231    -0.93100
C1805       C  0.75331038  0.20203837  0.79244230     1.00700
C1806       C  0.72868505  0.12970553  0.84128121     1.13600
C1807       C  0.76444294  0.16303391  0.72049889     1.04400
O1808       O  0.72549534  0.17657035  0.68610633    -0.95200
O1809       O  0.69359593  0.13789337  0.67747887    -0.91000
O1810       O  0.66359125  0.12154880  0.69453341    -0.84100
C1811       C  0.67542933  0.12836580  0.67487486     1.11000
O1812       O  0.72466070  0.09339069  0.76181488    -0.97200
Zr1813     Zr  0.69966574  0.10167364  0.75629168     1.88900
O1814       O  0.64809307  0.08781682  0.74016870    -0.73900
O1815       O  0.72358814  0.13274086  0.67444477    -0.53100
O1816       O  0.70432467  0.08755162  0.71611633    -0.97800
O1817       O  0.69316096  0.07871228  0.79211143    -0.55000
O1818       O  0.66834934  0.07598134  0.74363761    -0.74400
C1819       C  0.65167411  0.07394213  0.74018109     0.98000
O1820       O  0.64322318  0.12835006  0.72348442    -0.63200
O1821       O  0.69136462  0.15160172  0.84780723    -0.58000
O1822       O  0.64398083  0.11905184  0.77571856    -0.94700
O1823       O  0.65564741  0.12017371  0.81737359    -0.93100
O1824       O  0.70015295  0.18785440  0.80812189    -0.93500
O1825       O  0.68414862  0.18582243  0.75867495    -0.92200
C1826       C  0.64232457  0.11809047  0.80120120     1.16800
H1827       H  0.72176262  0.16832745  0.81675081     0.32800
H1828       H  0.68919700  0.15975274  0.71776036     0.43600
H1829       H  0.66568957  0.09597740  0.78366584     0.37100
H1830       H  0.73576220  0.12892891  0.73572172     0.33600
H1831       H  0.72197660  0.21293316  0.74487223     0.25400
H1832       H  0.73084661  0.14325879  0.66153465     0.31300
H1833       H  0.70691927  0.09706078  0.70184293     0.37200
H1834       H  0.70602746  0.20182169  0.80505131     0.31700
H1835       H  0.67878409  0.15095423  0.84742669     0.30600
H1836       H  0.67116812  0.10778559  0.85931134     0.32300
H1837       H  0.68351867  0.06616517  0.78472406     0.31200
H1838       H  0.67156602  0.17401743  0.76075979     0.35200
H1839       H  0.63077116  0.11724570  0.72878189     0.28000
H1840       H  0.77942248  0.17329933  0.79216427     0.32200
H1841       H  0.73434711  0.10368493  0.77324081     0.35000
H1842       H  0.69128467  0.14513006  0.86466700     0.27700
H1843       H  0.64407774  0.13937714  0.73336537     0.40500
H1844       H  0.73965748  0.18381960  0.68567083     0.30600
H1845       H  0.73112991  0.20300006  0.72856407     0.38200
H1846       H  0.68611627  0.08167964  0.80568610     0.30100
H1847       H  0.73293548  0.12914937  0.68108161     0.30100
H1848       H  0.77278346  0.15137014  0.79125658     0.30400
Zr1849     Zr  0.72433624  0.92151074  0.44946294     2.17500
O1850       O  0.69727273  0.89248003  0.46775046    -0.52000
O1851       O  0.73942909  0.90331785  0.46306525    -0.75200
O1852       O  0.70637115  0.89723589  0.41539979    -0.82000
O1853       O  0.72672508  0.95055577  0.51212314    -0.83700
O1854       O  0.72140207  0.90893785  0.37589293    -0.79300
O1855       O  0.70981910  0.92157104  0.49201009    -0.91000
O1856       O  0.77020837  0.91845432  0.44888258    -0.76900
O1857       O  0.74863520  0.92858671  0.41728533    -0.86400
O1858       O  0.75393569  0.94357546  0.47032129    -0.86100
O1859       O  0.71585176  0.93465759  0.41229120    -0.72900
O1860       O  0.72179976  0.94897444  0.46092367    -0.85000
Zr1861     Zr  0.76761378  0.99261419  0.41030573     2.26400
Zr1862     Zr  0.74115822  0.94284450  0.38090305     2.06300
Zr1863     Zr  0.75173055  0.97148165  0.48070363     2.10000
Zr1864     Zr  0.77799064  0.95106631  0.43737001     1.78800
O1865       O  0.74106290  0.98808041  0.51057073    -0.93800
O1866       O  0.79342799  0.94262438  0.40238026    -0.41600
O1867       O  0.77609202  0.97925376  0.44769447    -0.78200
O1868       O  0.77121176  0.96541132  0.39987319    -0.96900
O1869       O  0.73793920  0.97009035  0.39074880    -0.90200
O1870       O  0.74385280  0.98499485  0.44383333    -0.93100
C1871       C  0.75547662  0.90401987  0.45926376     1.00700
C1872       C  0.71282103  0.93313703  0.51142323     1.13600
C1873       C  0.70880157  0.89551509  0.39040961     1.04400
O1874       O  0.75783980  0.93140704  0.35251350    -0.95200
O1875       O  0.75798885  0.96484260  0.34550711    -0.91000
O1876       O  0.77153512  0.99522532  0.36134267    -0.84100
C1877       C  0.76716233  0.98300160  0.34224331     1.11000
O1878       O  0.68001093  0.94027052  0.42790814    -0.97200
Zr1879     Zr  0.71422046  0.96259223  0.42398830     1.88900
O1880       O  0.75339291  0.01324309  0.40455310    -0.73900
O1881       O  0.71756701  0.93741889  0.34658052    -0.53100
O1882       O  0.69559050  0.95798898  0.38363778    -0.97800
O1883       O  0.69882723  0.96990623  0.46031248    -0.55000
O1884       O  0.72163923  0.99492068  0.41409355    -0.74400
C1885       C  0.73652386  0.01088325  0.40809589     0.98000
O1886       O  0.79907378  0.01536860  0.39241801    -0.63200
O1887       O  0.77259314  0.97039117  0.51495695    -0.58000
O1888       O  0.78595098  0.01747256  0.44292257    -0.94700
O1889       O  0.77463240  0.00594564  0.48448235    -0.93100
O1890       O  0.79582035  0.95543147  0.47852412    -0.93500
O1891       O  0.81214964  0.97325743  0.43226868    -0.92200
C1892       C  0.78574090  0.01945592  0.46835702     1.16800
H1893       H  0.75605002  0.93805288  0.48624884     0.32800
H1894       H  0.78127962  0.96911381  0.38674085     0.43600
H1895       H  0.74376856  0.99620179  0.45038354     0.37100
H1896       H  0.70365277  0.92554644  0.40481414     0.33600
H1897       H  0.79817225  0.93486605  0.41143018     0.25400
H1898       H  0.71919703  0.92943510  0.33301185     0.31300
H1899       H  0.70452300  0.96797911  0.37109749     0.37200
H1900       H  0.78923432  0.94285905  0.48771335     0.31700
H1901       H  0.78400908  0.98337950  0.51489821     0.30600
H1902       H  0.74661736  0.98797893  0.52815228     0.32300
H1903       H  0.70857397  0.98282317  0.46646892     0.31200
H1904       H  0.81310156  0.98154706  0.41703481     0.35200
H1905       H  0.80017936  0.02812025  0.39421379     0.28000
H1906       H  0.69898680  0.88171823  0.46181804     0.32200
H1907       H  0.67909432  0.92952589  0.43869522     0.35000
H1908       H  0.76603706  0.96963311  0.53199301     0.27700
H1909       H  0.80835452  0.01540798  0.40539072     0.40500
H1910       H  0.74923625  0.92539993  0.33707422     0.30600
H1911       H  0.78278307  0.93336202  0.39103215     0.38200
H1912       H  0.69779866  0.96125821  0.47509518     0.30100
H1913       H  0.70499379  0.92875617  0.35487565     0.30100
H1914       H  0.68584762  0.89082414  0.45803552     0.30400
Zr1915     Zr  0.59772562  0.86067153  0.71865936     2.17500
O1916       O  0.62753706  0.86168015  0.70655788    -0.52000
O1917       O  0.58469812  0.82745817  0.70482401    -0.75200
O1918       O  0.61321094  0.85425280  0.75645545    -0.82000
O1919       O  0.59776306  0.88600185  0.65346880    -0.83700
O1920       O  0.59688266  0.85204138  0.79433224    -0.79300
O1921       O  0.61466167  0.87536888  0.67726480    -0.91000
O1922       O  0.55262771  0.81160491  0.71158163    -0.76900
O1923       O  0.57183900  0.84312015  0.74855589    -0.86400
O1924       O  0.56919879  0.85220035  0.69383979    -0.86100
O1925       O  0.60316466  0.88215162  0.75508799    -0.72900
O1926       O  0.59966784  0.89010589  0.70485158    -0.85000
Zr1927     Zr  0.55042690  0.88626958  0.74798455     2.26400
Zr1928     Zr  0.57627816  0.86460162  0.78410414     2.06300
Zr1929     Zr  0.57080058  0.88173495  0.68090187     2.10000
Zr1930     Zr  0.54352162  0.83513223  0.72443662     1.78800
O1931       O  0.58206648  0.90971745  0.65208708    -0.93800
O1932       O  0.52919021  0.80868795  0.75623106    -0.41600
O1933       O  0.54509849  0.86457930  0.71165643    -0.78200
O1934       O  0.54705927  0.85594151  0.76130722    -0.96900
O1935       O  0.57894993  0.89432096  0.77135309    -0.90200
O1936       O  0.57593705  0.90328262  0.71688875    -0.93100
C1937       C  0.56826728  0.81209487  0.70505852     1.00700
C1938       C  0.61207359  0.88326204  0.65655542     1.13600
C1939       C  0.60988814  0.85075749  0.78156915     1.04400
O1940       O  0.55491447  0.83515359  0.80794897    -0.95200
O1941       O  0.56184592  0.87489742  0.81705305    -0.91000
O1942       O  0.54458632  0.88639477  0.79626241    -0.84100
C1943       C  0.55091472  0.88214493  0.81729369     1.11000
O1944       O  0.63900133  0.92480845  0.74012832    -0.97200
Zr1945     Zr  0.60443278  0.91114968  0.74097490     1.88900
O1946       O  0.56323500  0.92091699  0.75252740    -0.73900
O1947       O  0.59636267  0.88041807  0.82277369    -0.53100
O1948       O  0.62072177  0.92389631  0.78325213    -0.97800
O1949       O  0.62060593  0.93482448  0.70582553    -0.55000
O1950       O  0.59563244  0.93462664  0.75329129    -0.74400
C1951       C  0.58020567  0.93544396  0.75486367     0.98000
O1952       O  0.51754806  0.87810192  0.75762441    -0.63200
O1953       O  0.55385571  0.86035744  0.64383740    -0.58000
O1954       O  0.53178686  0.88918797  0.71254700    -0.94700
O1955       O  0.54469276  0.88867601  0.67237023    -0.93100
O1956       O  0.52663142  0.82286839  0.68238484    -0.93500
O1957       O  0.50923795  0.82246694  0.72922973    -0.92200
C1958       C  0.53225596  0.89005237  0.68698842     1.16800
H1959       H  0.56813355  0.84457510  0.67838265     0.32800
H1960       H  0.53631460  0.84944094  0.77344041     0.43600
H1961       H  0.57609707  0.91452454  0.70980056     0.37100
H1962       H  0.61496528  0.88561760  0.76421034     0.33600
H1963       H  0.53992789  0.80703294  0.76246201     0.25400
H1964       H  0.59401340  0.87002332  0.83546896     0.31300
H1965       H  0.61038848  0.92094410  0.79629833     0.37200
H1966       H  0.52385809  0.80944375  0.68151654     0.31700
H1967       H  0.54872965  0.86718935  0.63327029     0.30600
H1968       H  0.57600580  0.90449415  0.63459769     0.32300
H1969       H  0.61052977  0.93684526  0.69781857     0.31200
H1970       H  0.50813730  0.83329940  0.73647376     0.35200
H1971       H  0.51275134  0.86765773  0.77102601     0.28000
H1972       H  0.62605837  0.84924221  0.71231825     0.32200
H1973       H  0.64095639  0.91508451  0.73085018     0.35000
H1974       H  0.56400807  0.86065423  0.63240623     0.27700
H1975       H  0.51858431  0.88928946  0.76728005     0.40500
H1976       H  0.56165587  0.83601853  0.82484943     0.30600
H1977       H  0.52583111  0.81387101  0.77189977     0.38200
H1978       H  0.62351712  0.92797084  0.69187265     0.30100
H1979       H  0.60971204  0.88554092  0.81661707     0.30100
H1980       H  0.63746492  0.87133644  0.71844812     0.30400
Zr1981     Zr  0.17695108  0.92001858  0.94674120     2.17500
O1982       O  0.17835480  0.89092225  0.95562188    -0.52000
O1983       O  0.14277238  0.90017323  0.95657175    -0.75200
O1984       O  0.18389685  0.91671566  0.99312503    -0.82000
O1985       O  0.17725220  0.91226350  0.87175223    -0.83700
O1986       O  0.19536150  0.94507424  0.01487585    -0.79300
O1987       O  0.17504651  0.89788162  0.91159400    -0.91000
O1988       O  0.12784136  0.91726995  0.94916934    -0.76900
O1989       O  0.16798574  0.94073524  0.96842852    -0.86400
O1990       O  0.16063436  0.92803665  0.91415256    -0.86100
O1991       O  0.20651917  0.94747054  0.96129469    -0.72900
O1992       O  0.19986478  0.93561024  0.91159292    -0.85000
Zr1993     Zr  0.20368726  0.99243664  0.91410105     2.26400
Zr1994     Zr  0.19726582  0.96848230  0.98219329     2.06300
Zr1995     Zr  0.18354390  0.94421266  0.87970294     2.10000
Zr1996     Zr  0.15214296  0.94909063  0.93547630     1.78800
O1997       O  0.20356209  0.94457692  0.84305000    -0.93800
O1998       O  0.13981935  0.95560220  0.97609287    -0.41600
O1999       O  0.17431094  0.96510355  0.89984697    -0.78200
O2000       O  0.18080959  0.97690850  0.94962854    -0.96900
O2001       O  0.21984400  0.98431696  0.94700737    -0.90200
O2002       O  0.21270596  0.97171221  0.89301036    -0.93100
C2003       C  0.12773625  0.90186005  0.95590686     1.00700
C2004       C  0.17522476  0.89812643  0.88588100     1.13600
C2005       C  0.19064242  0.92729331  0.01391954     1.04400
O2006       O  0.17757645  0.96803939  0.01928362    -0.95200
O2007       O  0.20507228  0.00172683  0.98984239    -0.91000
O2008       O  0.20926218  0.01566266  0.94899057    -0.84100
C2009       C  0.20884310  0.01613694  0.97463169     1.11000
O2010       O  0.23950831  0.94055416  0.93296801    -0.97200
Zr2011     Zr  0.22860205  0.96348588  0.92572170     1.88900
O2012       O  0.23806088  0.01430817  0.90990416    -0.73900
O2013       O  0.22705779  0.98399863  0.00744584    -0.53100
O2014       O  0.25371268  0.97424561  0.95930565    -0.65400
O2015       O  0.24428373  0.96060131  0.88580407    -0.55000
O2016       O  0.25220108  0.99614474  0.91487115    -0.74400
C2017       C  0.25276069  0.01211309  0.91073085     0.98000
O2018       O  0.19448582  0.01544376  0.89882259    -0.63200
O2019       O  0.15399924  0.92881674  0.85399581    -0.58000
O2020       O  0.20200369  0.99710737  0.86578862    -0.94700
O2021       O  0.18694270  0.96746058  0.84708861    -0.93100
O2022       O  0.12630631  0.93855033  0.90310564    -0.93500
O2023       O  0.14054971  0.97092525  0.92416512    -0.92200
C2024       C  0.19454474  0.98567853  0.84578744     1.16800
H2025       H  0.14959164  0.91675198  0.90723047     0.32800
H2026       H  0.17694040  0.98544947  0.95711619     0.43600
H2027       H  0.22088519  0.97792557  0.87782695     0.37100
H2028       H  0.21323621  0.94375608  0.97361723     0.33600
H2029       H  0.12652882  0.95220797  0.97167337     0.25400
H2030       H  0.22345990  0.98683941  0.02502088     0.31300
H2031       H  0.24712855  0.96767484  0.97598716     0.37200
H2032       H  0.12366522  0.92571924  0.89731772     0.31700
H2033       H  0.14941302  0.93814960  0.85396859     0.30600
H2034       H  0.19451616  0.93546210  0.82978859     0.32300
H2035       H  0.25727394  0.96389785  0.89179390     0.31200
H2036       H  0.15097903  0.98114648  0.91343553     0.35200
H2037       H  0.18523725  0.01490659  0.91226469     0.28000
H2038       H  0.16934665  0.88428163  0.97050986     0.32200
H2039       H  0.23026530  0.93113140  0.94583704     0.35000
H2040       H  0.15814587  0.92884820  0.83539593     0.27700
H2041       H  0.20602850  0.02818819  0.90120703     0.40500
H2042       H  0.18683567  0.97541795  0.03354768     0.30600
H2043       H  0.13836543  0.94555714  0.98885567     0.38200
H2044       H  0.24648053  0.97146728  0.87417670     0.30100
H2045       H  0.23016531  0.97379614  0.01121843     0.30100
H2046       H  0.19125578  0.89525842  0.96306231     0.30400
Zr2047     Zr  0.23520183  0.85831716  0.21787104     2.17500
O2048       O  0.20404377  0.85497333  0.20785277    -0.52000
O2049       O  0.21685595  0.82463250  0.20562726    -0.75200
O2050       O  0.23257954  0.86783701  0.17253046    -0.82000
O2051       O  0.22817291  0.86038219  0.29347268    -0.83700
O2052       O  0.26145987  0.88174286  0.15164013    -0.79300
O2053       O  0.21353120  0.85692568  0.25355869    -0.91000
O2054       O  0.23545082  0.81098114  0.20946325    -0.76900
O2055       O  0.25739085  0.85191317  0.19502878    -0.86400
O2056       O  0.24356994  0.84102244  0.24852603    -0.86100
O2057       O  0.26183884  0.88925540  0.20584919    -0.72900
O2058       O  0.24921028  0.87938839  0.25504899    -0.85000
Zr2059     Zr  0.30756109  0.88757479  0.25215141     2.26400
Zr2060     Zr  0.28440468  0.88254282  0.18397940     2.06300
Zr2061     Zr  0.25837896  0.86239800  0.28495551     2.10000
Zr2062     Zr  0.26634456  0.83544775  0.22614598     1.78800
O2063       O  0.25582015  0.87459480  0.32827820    -0.93800
O2064       O  0.27425336  0.82496465  0.18491756    -0.41600
O2065       O  0.28121313  0.85630375  0.26359381    -0.78200
O2066       O  0.29351198  0.86583184  0.21503860    -0.96900
O2067       O  0.29839779  0.90382079  0.22091152    -0.90200
O2068       O  0.28485190  0.89328325  0.27441549    -0.93100
C2069       C  0.21962525  0.81032107  0.20377940     1.00700
C2070       C  0.21408914  0.85822918  0.27922158     1.13600
C2071       C  0.24348367  0.87612980  0.15237478     1.04400
O2072       O  0.28517017  0.86336410  0.14703629    -0.95200
O2073       O  0.31819545  0.89269260  0.17683905    -0.91000
O2074       O  0.33183448  0.89614210  0.21770137    -0.84100
C2075       C  0.33256628  0.89663770  0.19205306     1.11000
O2076       O  0.25116696  0.91833118  0.23740230    -0.97200
Zr2077     Zr  0.27586467  0.90963235  0.24339489     1.88900
O2078       O  0.32757786  0.92252337  0.25799380    -0.73900
O2079       O  0.29980777  0.91245650  0.15884080    -0.53100
O2080       O  0.28375509  0.93535897  0.21143972    -0.97800
O2081       O  0.27160824  0.92174291  0.28592127    -0.55000
O2082       O  0.30774318  0.93475133  0.25359127    -0.74400
C2083       C  0.32426544  0.93660849  0.25751673     0.98000
O2084       O  0.33157024  0.87933529  0.26592213    -0.63200
O2085       O  0.24166584  0.83024246  0.30407727    -0.58000
O2086       O  0.31174252  0.88512308  0.30030378    -0.94700
O2087       O  0.28189948  0.86629449  0.31713013    -0.93100
O2088       O  0.25451311  0.80831539  0.25667653    -0.93500
O2089       O  0.28913502  0.82445931  0.23381653    -0.92200
C2090       C  0.30008131  0.87588017  0.31951924     1.16800
H2091       H  0.23247338  0.82927440  0.25426841     0.32800
H2092       H  0.30275453  0.86307540  0.20713527     0.43600
H2093       H  0.29026347  0.90085370  0.29029516     0.37100
H2094       H  0.25800049  0.89636067  0.19447467     0.33600
H2095       H  0.26855259  0.81093314  0.18703275     0.25400
H2096       H  0.29973288  0.90854059  0.14011063     0.31300
H2097       H  0.29554208  0.93732216  0.20248341     0.37200
H2098       H  0.26035103  0.81400757  0.27409115     0.31700
H2099       H  0.24756611  0.83156102  0.32184097     0.30600
H2100       H  0.24894006  0.86309879  0.33976557     0.32300
H2101       H  0.28432070  0.92793121  0.29461977     0.31200
H2102       H  0.30130505  0.83623206  0.23812032     0.35200
H2103       H  0.33228109  0.87154699  0.25119400     0.28000
H2104       H  0.19911713  0.84650113  0.19207526     0.32200
H2105       H  0.25568057  0.93044883  0.24732126     0.35000
H2106       H  0.22861280  0.82782634  0.30800896     0.27700
H2107       H  0.34392546  0.89152951  0.26529906     0.40500
H2108       H  0.29483359  0.85979677  0.15219097     0.30600
H2109       H  0.26628263  0.82638762  0.17108703     0.38200
H2110       H  0.26365781  0.91014065  0.29679881     0.30100
H2111       H  0.29058676  0.91717099  0.15917884     0.30100
H2112       H  0.20664596  0.86770709  0.20149510     0.30400
Zr2113     Zr  0.40870705  0.94366838  0.61262226     2.17500
O2114       O  0.43983536  0.97164499  0.62217484    -0.52000
O2115       O  0.42769517  0.92834090  0.62241075    -0.75200
O2116       O  0.41166765  0.95569303  0.65832306    -0.82000
O2117       O  0.41638986  0.95134266  0.53693349    -0.83700
O2118       O  0.38241937  0.94121145  0.67823243    -0.79300
O2119       O  0.43012644  0.96405927  0.57684726    -0.91000
O2120       O  0.40888659  0.89624088  0.61747831    -0.76900
O2121       O  0.38631848  0.91474181  0.63490822    -0.86400
O2122       O  0.39996258  0.91850070  0.58109505    -0.86100
O2123       O  0.38213086  0.94805548  0.62476597    -0.72900
O2124       O  0.39447262  0.95111442  0.57588533    -0.85000
Zr2125     Zr  0.33609835  0.90104840  0.57830589     2.26400
Zr2126     Zr  0.35940648  0.91846397  0.64638369     2.06300
Zr2127     Zr  0.38485781  0.92538539  0.54521258     2.10000
Zr2128     Zr  0.37737237  0.88983636  0.60301427     1.78800
O2129       O  0.38806348  0.94404202  0.50523693    -0.93800
O2130       O  0.37030042  0.87076406  0.64365980    -0.41600
O2131       O  0.36225467  0.89623387  0.56625006    -0.78200
O2132       O  0.35027011  0.89292963  0.61490319    -0.96900
O2133       O  0.34528081  0.92620348  0.60986836    -0.90200
O2134       O  0.35853760  0.92977002  0.55625447    -0.93100
C2135       C  0.42496818  0.91120038  0.62301365     1.00700
C2136       C  0.43005618  0.96384683  0.55113608     1.13600
C2137       C  0.40049700  0.95335681  0.67806725     1.04400
O2138       O  0.36078160  0.90013081  0.68419861    -0.95200
O2139       O  0.32557610  0.89379585  0.65320279    -0.91000
O2140       O  0.31177118  0.88470072  0.61229080    -0.84100
C2141       C  0.31108767  0.88376809  0.63788439     1.11000
O2142       O  0.39147741  0.98880541  0.58813852    -0.97200
Zr2143     Zr  0.36785678  0.95477400  0.58765823     1.88900
O2144       O  0.31609786  0.91579009  0.57373555    -0.73900
O2145       O  0.34284897  0.93152200  0.67184255    -0.53100
O2146       O  0.36180912  0.97216077  0.62238820    -0.97800
O2147       O  0.37216526  0.97258280  0.54635616    -0.55000
O2148       O  0.33572346  0.94790096  0.57812730    -0.74400
C2149       C  0.31923462  0.93306652  0.57458389     0.98000
O2150       O  0.31174659  0.86928225  0.56341862    -0.63200
O2151       O  0.39887545  0.90835708  0.52321315    -0.58000
O2152       O  0.33131214  0.89484772  0.53021900    -0.94700
O2153       O  0.36107241  0.90704295  0.51254920    -0.93100
O2154       O  0.38635684  0.87430742  0.56888893    -0.93500
O2155       O  0.35465283  0.85612520  0.59496222    -0.92200
C2156       C  0.34283356  0.89794407  0.51060479     1.16800
H2157       H  0.41092215  0.91787505  0.57470832     0.32800
H2158       H  0.34103828  0.88077586  0.62253718     0.43600
H2159       H  0.35307599  0.93216661  0.54057993     0.37100
H2160       H  0.38611090  0.95898996  0.63617148     0.33600
H2161       H  0.38162526  0.87804696  0.65521910     0.25400
H2162       H  0.34461571  0.92913530  0.69073813     0.31300
H2163       H  0.34878627  0.96303421  0.62897030     0.37200
H2164       H  0.39558618  0.87136201  0.57766917     0.31700
H2165       H  0.38807502  0.89513744  0.52089171     0.30600
H2166       H  0.39445384  0.94002963  0.49196905     0.32300
H2167       H  0.35957731  0.96604118  0.53732408     0.31200
H2168       H  0.34394647  0.85616153  0.58533470     0.35200
H2169       H  0.31074835  0.86035005  0.57776222     0.28000
H2170       H  0.44477985  0.96835622  0.63822489     0.32200
H2171       H  0.40084784  0.99007437  0.60190202     0.35000
H2172       H  0.40186675  0.91372918  0.50491676     0.27700
H2173       H  0.29951768  0.86936599  0.56412662     0.40500
H2174       H  0.34734350  0.89183997  0.68993739     0.30600
H2175       H  0.35999087  0.87194305  0.65256442     0.38200
H2176       H  0.38052251  0.96969271  0.53518231     0.30100
H2177       H  0.35079585  0.94558036  0.66964422     0.30100
H2178       H  0.43716410  0.98181850  0.62799278     0.30400
Zr2179     Zr  0.46776815  0.06585694  0.88531148     2.17500
O2180       O  0.46645259  0.03520263  0.87899910    -0.52000
O2181       O  0.50110451  0.08117505  0.87063722    -0.75200
O2182       O  0.45815604  0.05310145  0.84035106    -0.82000
O2183       O  0.47321183  0.06170046  0.95995788    -0.83700
O2184       O  0.44354393  0.06756405  0.81985266    -0.79300
O2185       O  0.47554692  0.04963622  0.92023991    -0.91000
O2186       O  0.51498766  0.11338145  0.87571234    -0.76900
O2187       O  0.47418732  0.09433972  0.86214048    -0.86400
O2188       O  0.48480839  0.09153327  0.91568241    -0.86100
O2189       O  0.43673372  0.06140816  0.87396512    -0.72900
O2190       O  0.44671563  0.05873722  0.92283442    -0.85000
Zr2191     Zr  0.43934177  0.10957462  0.91956142     2.26400
Zr2192     Zr  0.44351869  0.09055306  0.85139660     2.06300
Zr2193     Zr  0.46365710  0.08505704  0.95245729     2.10000
Zr2194     Zr  0.49074642  0.11985419  0.89295151     1.78800
O2195       O  0.44601698  0.06572248  0.99092297    -0.93800
O2196       O  0.50182442  0.13815751  0.85159534    -0.41600
O2197       O  0.47036328  0.11419441  0.93084974    -0.78200
O2198       O  0.46051186  0.11646862  0.88198808    -0.96900
O2199       O  0.42261823  0.08406787  0.88872678    -0.90200
O2200       O  0.43290557  0.08099154  0.94233478    -0.93100
C2201       C  0.51549451  0.09827793  0.86909597     1.00700
C2202       C  0.47658812  0.05053563  0.94584445     1.13600
C2203       C  0.44931724  0.05529267  0.82051356     1.04400
O2204       O  0.46288152  0.10926203  0.81364970    -0.95200
O2205       O  0.43493046  0.11533605  0.84383947    -0.91000
O2206       O  0.43180755  0.12572630  0.88474434    -0.84100
C2207       C  0.43140954  0.12604607  0.85910887     1.11000
O2208       O  0.40524980  0.02155235  0.90766378    -0.97200
Zr2209     Zr  0.41647919  0.05566259  0.91150901     1.88900
O2210       O  0.40479801  0.09545182  0.92568923    -0.73900
O2211       O  0.41331659  0.07668836  0.82718738    -0.53100
O2212       O  0.39145931  0.03938134  0.87825349    -0.97800
O2213       O  0.40352293  0.03806245  0.95302414    -0.55000
O2214       O  0.39187211  0.06323244  0.92199203    -0.74400
C2215       C  0.39052099  0.07824749  0.92546505     0.98000
O2216       O  0.44640869  0.14219123  0.92873911    -0.63200
O2217       O  0.49304712  0.10046664  0.97862782    -0.58000
O2218       O  0.44278079  0.11683646  0.96769460    -0.94700
O2219       O  0.46190976  0.10610095  0.98429178    -0.93100
O2220       O  0.51702215  0.13524268  0.92456838    -0.93500
O2221       O  0.50045301  0.15351785  0.89866487    -0.92200
C2222       C  0.45255374  0.11494735  0.98663427     1.16800
H2223       H  0.49655490  0.09219405  0.92130794     0.32800
H2224       H  0.46355774  0.12851182  0.87388658     0.43600
H2225       H  0.42538544  0.07901742  0.95825160     0.37100
H2226       H  0.42957777  0.05033416  0.86288623     0.33600
H2227       H  0.51595809  0.14529301  0.85303997     0.25400
H2228       H  0.41687127  0.08205452  0.80893197     0.31300
H2229       H  0.39087272  0.04980639  0.86858948     0.37200
H2230       H  0.51094473  0.13080073  0.94227651     0.31700
H2231       H  0.49073633  0.09161827  0.99373398     0.30600
H2232       H  0.45475867  0.07164150  0.00625269     0.32300
H2233       H  0.39832543  0.04516168  0.96271133     0.31200
H2234       H  0.48893208  0.15338087  0.90577370     0.35200
H2235       H  0.43603950  0.14083851  0.94071721     0.28000
H2236       H  0.47503484  0.03708217  0.86375923     0.32200
H2237       H  0.41589423  0.02093447  0.89879357     0.35000
H2238       H  0.50280928  0.09967940  0.96761704     0.27700
H2239       H  0.45809454  0.14798760  0.93989890     0.40500
H2240       H  0.45357859  0.10647445  0.79906258     0.30600
H2241       H  0.49909516  0.12848126  0.83759848     0.38200
H2242       H  0.41489171  0.04034990  0.96344610     0.30100
H2243       H  0.40921353  0.06294843  0.82514224     0.30100
H2244       H  0.45337364  0.02622501  0.87249600     0.30400
Zr2245     Zr  0.26406502  0.09133068  0.55198456     2.17500
O2246       O  0.29365112  0.12169381  0.54508487    -0.52000
O2247       O  0.24971825  0.11085330  0.54013180    -0.75200
O2248       O  0.27631227  0.09444730  0.50658645    -0.82000
O2249       O  0.27246875  0.09780649  0.62720582    -0.83700
O2250       O  0.26065039  0.06555626  0.48590474    -0.79300
O2251       O  0.28414042  0.11271373  0.58753589    -0.91000
O2252       O  0.21766195  0.09390160  0.54716019    -0.76900
O2253       O  0.23501143  0.07018466  0.52940188    -0.86400
O2254       O  0.23884709  0.08376772  0.58298243    -0.86100
O2255       O  0.26721764  0.06404339  0.53996802    -0.72900
O2256       O  0.27028711  0.07615912  0.58877359    -0.85000
Zr2257     Zr  0.21846282  0.01898139  0.58624645     2.26400
Zr2258     Zr  0.23752453  0.04263143  0.51798238     2.06300
Zr2259     Zr  0.24443052  0.06777912  0.61893072     2.10000
Zr2260     Zr  0.20995216  0.06193638  0.56098780     1.78800
O2261       O  0.25966018  0.07154090  0.66222728    -0.93800
O2262       O  0.19187146  0.05654397  0.51980633    -0.41600
O2263       O  0.21490297  0.04595239  0.59806430    -0.78200
O2264       O  0.21186465  0.03417403  0.54930153    -0.96900
O2265       O  0.24360972  0.02726273  0.55476076    -0.90200
O2266       O  0.24735086  0.04043099  0.60837828    -0.93100
C2267       C  0.23303314  0.10923449  0.54041040     1.00700
C2268       C  0.28456153  0.11189895  0.61314458     1.13600
C2269       C  0.27344334  0.08347254  0.48646425     1.04400
O2270       O  0.21773746  0.04342443  0.48184657    -0.95200
O2271       O  0.21268509  0.00933351  0.51048102    -0.91000
O2272       O  0.20143168  0.99578851  0.55120834    -0.84100
C2273       C  0.20140814  0.99520036  0.52558197     1.11000
O2274       O  0.30694457  0.07007151  0.57467942    -0.97200
Zr2275     Zr  0.27241499  0.04859942  0.57725967     1.88900
O2276       O  0.23173152  0.99772221  0.59170729    -0.73900
O2277       O  0.25013242  0.02622227  0.49122295    -0.53100
O2278       O  0.28777891  0.03848353  0.54426331    -0.97800
O2279       O  0.28812531  0.05274986  0.62036079    -0.55000
O2280       O  0.26403345  0.01629005  0.58863290    -0.74400
C2281       C  0.24873264  0.00017277  0.59214194     0.98000
O2282       O  0.18709816  0.99397095  0.60149774    -0.63200
O2283       O  0.22806409  0.08351609  0.63793372    -0.58000
O2284       O  0.21089533  0.01507193  0.63448509    -0.94700
O2285       O  0.22604883  0.04487911  0.65232604    -0.93100
O2286       O  0.19520842  0.07103131  0.59614729    -0.93500
O2287       O  0.17553966  0.04084552  0.56564301    -0.92200
C2288       C  0.21520062  0.02679160  0.65422623     1.16800
H2289       H  0.23883835  0.09511393  0.58912344     0.32800
H2290       H  0.19967454  0.02544826  0.54137527     0.43600
H2291       H  0.24908530  0.03462083  0.62420253     0.37100
H2292       H  0.27807525  0.06774325  0.52849797     0.33600
H2293       H  0.20130447  0.06548061  0.50668172     0.25400
H2294       H  0.24900672  0.02947226  0.47249029     0.31300
H2295       H  0.29274515  0.04850850  0.53025307     0.37200
H2296       H  0.19605889  0.08310757  0.58994423     0.31700
H2297       H  0.21886919  0.07418794  0.65093659     0.30600
H2298       H  0.25435852  0.07776906  0.67369314     0.32300
H2299       H  0.28157659  0.03997512  0.62899722     0.31200
H2300       H  0.17421372  0.02988404  0.57631788     0.35200
H2301       H  0.17781865  0.99424894  0.58882561     0.28000
H2302       H  0.29061567  0.12861415  0.53132883     0.32200
H2303       H  0.31270801  0.06239538  0.58087984     0.35000
H2304       H  0.23785749  0.09394394  0.64906705     0.27700
H2305       H  0.18676048  0.98172219  0.59792873     0.40500
H2306       H  0.21573663  0.03283979  0.46984594     0.30600
H2307       H  0.18889496  0.04367791  0.51366446     0.38200
H2308       H  0.28425432  0.06058788  0.63101681     0.30100
H2309       H  0.26405744  0.03314404  0.49484894     0.30100
H2310       H  0.30273351  0.11851045  0.53640097     0.30400
Zr2311     Zr  0.38886403  0.15562443  0.28140567     2.17500
O2312       O  0.36087900  0.15869306  0.29142255    -0.52000
O2313       O  0.40494318  0.18955748  0.29414662    -0.75200
O2314       O  0.37551958  0.14474947  0.32612613    -0.82000
O2315       O  0.38450215  0.16026070  0.20615153    -0.83700
O2316       O  0.38928828  0.12936136  0.34633257    -0.79300
O2317       O  0.37031382  0.15964159  0.24548181    -0.91000
O2318       O  0.43706774  0.20193449  0.29187244    -0.76900
O2319       O  0.41667509  0.16030451  0.30490205    -0.86400
O2320       O  0.41520232  0.17293853  0.25187567    -0.86100
O2321       O  0.38337531  0.12387905  0.29150965    -0.72900
O2322       O  0.38206796  0.13536789  0.24311063    -0.85000
Zr2323     Zr  0.43093241  0.12502590  0.24615918     2.26400
Zr2324     Zr  0.41183549  0.12888799  0.31423184     2.06300
Zr2325     Zr  0.40909413  0.15243853  0.21450590     2.10000
Zr2326     Zr  0.44275823  0.17700582  0.27481790     1.78800
O2327       O  0.39365847  0.14353386  0.17098705    -0.93800
O2328       O  0.46036857  0.18656150  0.31675851    -0.41600
O2329       O  0.43727768  0.15700768  0.23643889    -0.78200
O2330       O  0.43828416  0.14593274  0.28419859    -0.96900
O2331       O  0.40486359  0.10853063  0.27625022    -0.90200
O2332       O  0.40325968  0.12076456  0.22327576    -0.93100
C2333       C  0.42225506  0.20339416  0.29691426     1.00700
C2334       C  0.37174809  0.16139916  0.21987633     1.13600
C2335       C  0.37723346  0.13541103  0.34576902     1.04400
O2336       O  0.43042818  0.14509936  0.35373568    -0.95200
O2337       O  0.43578520  0.11897553  0.32116914    -0.91000
O2338       O  0.44660767  0.11640576  0.28033887    -0.84100
C2339       C  0.44657153  0.11550455  0.30592809     1.11000
O2340       O  0.34372083  0.09495541  0.25858220    -0.97200
Zr2341     Zr  0.37728873  0.10423862  0.25304432     1.88900
O2342       O  0.41512521  0.09006072  0.24145916    -0.73900
O2343       O  0.39522635  0.09736008  0.33517757    -0.53100
O2344       O  0.36062166  0.07678673  0.28288512    -0.97800
O2345       O  0.36060233  0.09524844  0.21035388    -0.55000
O2346       O  0.38315109  0.07890903  0.23917917    -0.74400
C2347       C  0.39768604  0.07648114  0.23875827     0.98000
O2348       O  0.46251816  0.13141859  0.23190935    -0.63200
O2349       O  0.43066303  0.18469208  0.19801566    -0.58000
O2350       O  0.43778158  0.12731518  0.19803622    -0.94700
O2351       O  0.42578378  0.14529389  0.18116177    -0.93100
O2352       O  0.45913868  0.20271418  0.24236352    -0.93500
O2353       O  0.47685602  0.18819013  0.27126329    -0.92200
C2354       C  0.43469392  0.13599916  0.17868601     1.16800
H2355       H  0.41638750  0.18498260  0.24637202     0.32800
H2356       H  0.45011229  0.14834581  0.29229116     0.43600
H2357       H  0.40099428  0.11346766  0.20711271     0.37100
H2358       H  0.37215296  0.11674322  0.30235266     0.33600
H2359       H  0.45277175  0.19005901  0.32858575     0.25400
H2360       H  0.39836437  0.09981885  0.35437965     0.31300
H2361       H  0.35589582  0.08130998  0.29782857     0.37200
H2362       H  0.46508756  0.21462530  0.25304717     0.31700
H2363       H  0.43730687  0.18293102  0.18261638     0.30600
H2364       H  0.40026083  0.15536405  0.16007584     0.32300
H2365       H  0.36622303  0.08860255  0.20051535     0.31200
H2366       H  0.47758012  0.17648826  0.26769312     0.35200
H2367       H  0.47148509  0.13971109  0.24590397     0.28000
H2368       H  0.36420810  0.16686393  0.30749925     0.32200
H2369       H  0.33636022  0.08204751  0.25056035     0.35000
H2370       H  0.42214651  0.18889718  0.18999415     0.27700
H2371       H  0.46225710  0.11904193  0.23364820     0.40500
H2372       H  0.42648516  0.13483543  0.36728537     0.30600
H2373       H  0.45880809  0.17456188  0.32454515     0.38200
H2374       H  0.36520578  0.10752130  0.20069325     0.30100
H2375       H  0.38148036  0.09337721  0.33409943     0.30100
H2376       H  0.35065524  0.14584404  0.29721477     0.30400
C2377       C  0.31335231  0.11959771  0.44168114    -0.11500
C2378       C  0.31632774  0.10759643  0.42447151     0.05700
C2379       C  0.30387398  0.08768712  0.42616563    -0.10300
C2380       C  0.28922642  0.07989714  0.44528136    -0.11900
C2381       C  0.28681897  0.09182461  0.46341926    -0.01700
C2382       C  0.29887267  0.11180705  0.46104940    -0.10800
C2383       C  0.33276461  0.11568323  0.40549924     0.05700
H2384       H  0.30565728  0.07810321  0.41290097     0.07600
H2385       H  0.28031663  0.06446843  0.44656955     0.11100
H2386       H  0.29746212  0.12144053  0.47467129     0.11300
H2387       H  0.32272603  0.13498253  0.44087356     0.07600
C2388       C  0.33689258  0.13161689  0.38942135    -0.11500
C2389       C  0.35184317  0.13855276  0.37075292    -0.10800
C2390       C  0.36322649  0.12991586  0.36803814    -0.01700
C2391       C  0.35952377  0.11444758  0.38489412    -0.11900
C2392       C  0.34441402  0.10735636  0.40325440    -0.10300
H2393       H  0.32816110  0.13832412  0.39069339     0.07600
H2394       H  0.35421728  0.15043032  0.35802710     0.11300
H2395       H  0.36784122  0.10731709  0.38322127     0.11100
H2396       H  0.34175001  0.09523957  0.41565810     0.07600
C2397       C  0.44905725  0.11976797  0.11601368    -0.11500
C2398       C  0.44793902  0.13198892  0.09682338     0.05700
C2399       C  0.44419819  0.14632628  0.10514014    -0.10300
C2400       C  0.44091822  0.14804990  0.13193133    -0.11900
C2401       C  0.44103771  0.13530486  0.15117522    -0.01700
C2402       C  0.44555534  0.12136404  0.14305356    -0.10800
C2403       C  0.45006642  0.12955187  0.06804693     0.05700
H2404       H  0.44361641  0.15611290  0.09080889     0.07600
H2405       H  0.43778197  0.15918374  0.13743273     0.11100
H2406       H  0.44569091  0.11132299  0.15733653     0.11300
H2407       H  0.45193582  0.10856146  0.10994067     0.07600
C2408       C  0.46544350  0.12770683  0.05893131    -0.11500
C2409       C  0.46686647  0.12432720  0.03201580    -0.10800
C2410       C  0.45277863  0.12243848  0.01363880    -0.01700
C2411       C  0.43789674  0.12527535  0.02252983    -0.11900
C2412       C  0.43657691  0.12884224  0.04955422    -0.10300
H2413       H  0.47621825  0.12862287  0.07271249     0.07600
H2414       H  0.47869765  0.12248190  0.02576417     0.11300
H2415       H  0.42680393  0.12379416  0.00893210     0.11100
H2416       H  0.42458571  0.13028059  0.05621426     0.07600
C2417       C  0.27236557  0.93071516  0.59091598    -0.11500
C2418       C  0.27632304  0.94885690  0.58197632     0.05700
C2419       C  0.29285663  0.96010358  0.56685814    -0.10300
C2420       C  0.30605231  0.95406827  0.56245030    -0.11900
C2421       C  0.30296044  0.93659279  0.57301771    -0.01700
C2422       C  0.28561188  0.92453566  0.58628819    -0.10800
C2423       C  0.26516026  0.95774712  0.59092810     0.05700
H2424       H  0.29609143  0.97413702  0.55979997     0.07600
H2425       H  0.31925567  0.96360717  0.55210454     0.11100
H2426       H  0.28300932  0.91108713  0.59486768     0.11300
H2427       H  0.25970113  0.92191745  0.60275703     0.07600
C2428       C  0.24837111  0.95417143  0.57764513    -0.11500
C2429       C  0.24148013  0.96701977  0.58025182    -0.10800
C2430       C  0.25151679  0.98357946  0.59591258    -0.01700
C2431       C  0.26717482  0.98599464  0.61111778    -0.11900
C2432       C  0.27387812  0.97314604  0.60873701    -0.10300
H2433       H  0.24161774  0.94246635  0.56358490     0.07600
H2434       H  0.22950296  0.96500783  0.56811583     0.11300
H2435       H  0.27513278  0.99866201  0.62329027     0.11100
H2436       H  0.28692186  0.97618095  0.61899625     0.07600
C2437       C  0.43599893  0.99304074  0.72352049    -0.11500
C2438       C  0.42368810  0.99632011  0.73970739     0.05700
C2439       C  0.40384277  0.98413150  0.73715020    -0.10300
C2440       C  0.39641795  0.96946591  0.71821444    -0.11900
C2441       C  0.40863416  0.96673740  0.70103847    -0.01700
C2442       C  0.42855587  0.97849708  0.70425167    -0.10800
C2443       C  0.43133754  0.01248322  0.75900631     0.05700
H2444       H  0.39400653  0.98605905  0.74969084     0.07600
H2445       H  0.38102547  0.96077578  0.71630664     0.11100
H2446       H  0.43839289  0.97680678  0.69138815     0.11300
H2447       H  0.45136671  0.00217661  0.72508484     0.07600
C2448       C  0.44684938  0.01626666  0.77563664    -0.11500
C2449       C  0.45313840  0.03063276  0.79501146    -0.10800
C2450       C  0.44425423  0.04175398  0.79791684    -0.01700
C2451       C  0.42916564  0.03840783  0.78063878    -0.11900
C2452       C  0.42274109  0.02389454  0.76148929    -0.10300
H2453       H  0.45368523  0.00765803  0.77429523     0.07600
H2454       H  0.46472839  0.03276989  0.80809373     0.11300
H2455       H  0.42185873  0.04654980  0.78250994     0.11100
H2456       H  0.41090281  0.02147067  0.74872992     0.07600
C2457       C  0.34209078  0.88779771  0.43712346    -0.11500
C2458       C  0.32375521  0.88377379  0.42958135     0.05700
C2459       C  0.31088926  0.88279323  0.44940441    -0.10300
C2460       C  0.31661848  0.88655310  0.47615920    -0.11900
C2461       C  0.33529922  0.89135917  0.48341704    -0.01700
C2462       C  0.34777503  0.89150699  0.46363688    -0.10800
C2463       C  0.31832843  0.88097548  0.40102274     0.05700
H2464       H  0.29663714  0.87977762  0.44409563     0.07600
H2465       H  0.30672944  0.88640490  0.49089555     0.11100
H2466       H  0.36221402  0.89489737  0.46851370     0.11300
H2467       H  0.35213587  0.88819477  0.42245103     0.07600
C2468       C  0.33135522  0.89271358  0.38120123    -0.11500
C2469       C  0.32590638  0.89055232  0.35434439    -0.10800
C2470       C  0.30732290  0.87663668  0.34688968    -0.01700
C2471       C  0.29461729  0.86444330  0.36670069    -0.11900
C2472       C  0.30003364  0.86663092  0.39339579    -0.10300
H2473       H  0.34556017  0.90400532  0.38656513     0.07600
H2474       H  0.33594534  0.90023040  0.33964694     0.11300
H2475       H  0.28019590  0.85341360  0.36171787     0.11100
H2476       H  0.28985028  0.85713070  0.40810566     0.07600
C2477       C  0.37168881  0.98251876  0.24663937    -0.11500
C2478       C  0.36642712  0.99619512  0.25339470     0.05700
C2479       C  0.34869123  0.99006817  0.26565155    -0.10300
C2480       C  0.33577136  0.97062095  0.26917844    -0.11900
C2481       C  0.34015703  0.95669523  0.26034703    -0.01700
C2482       C  0.35859694  0.96281637  0.25012477    -0.10800
C2483       C  0.37773229  0.01651761  0.24490636     0.05700
H2484       H  0.34440762  0.00037745  0.27118333     0.07600
H2485       H  0.32179361  0.96644154  0.27738515     0.11100
H2486       H  0.36234780  0.95243420  0.24302364     0.11300
H2487       H  0.38534182  0.98698683  0.23714097     0.07600
C2488       C  0.39464433  0.02960889  0.25805472    -0.11500
C2489       C  0.40248676  0.04943369  0.25399927    -0.10800
C2490       C  0.39336976  0.05633617  0.23697040    -0.01700
C2491       C  0.37731976  0.04308892  0.22238242    -0.11900
C2492       C  0.36963319  0.02342682  0.22626788    -0.10300
H2493       H  0.40097272  0.02458549  0.27276751     0.07600
H2494       H  0.41467367  0.05932945  0.26584110     0.11300
H2495       H  0.36996356  0.04797129  0.20921737     0.11100
H2496       H  0.35655455  0.01356841  0.21598089     0.07600
C2497       C  0.21119509  0.01666509  0.78358674    -0.11500
C2498       C  0.19776815  0.00427643  0.76470843     0.05700
C2499       C  0.18237553  0.98684008  0.77342424    -0.10300
C2500       C  0.18086358  0.98147307  0.80016512    -0.11900
C2501       C  0.19475692  0.99336487  0.81887172    -0.01700
C2502       C  0.20969666  0.01125606  0.81049204    -0.10800
C2503       C  0.20015629  0.00922124  0.73589691     0.05700
H2504       H  0.17164621  0.97721116  0.75944902     0.07600
H2505       H  0.16904197  0.96766099  0.80609215     0.11100
H2506       H  0.22068554  0.02059402  0.82439085     0.11300
H2507       H  0.22328480  0.03018746  0.77733419     0.07600
C2508       C  0.20531535  0.02780068  0.72770434    -0.11500
C2509       C  0.20909662  0.03299153  0.70092184    -0.10800
C2510       C  0.20799184  0.01978083  0.68155873    -0.01700
C2511       C  0.20190025  0.00088800  0.68950587    -0.11900
C2512       C  0.19798171  0.99564244  0.71647965    -0.10300
H2513       H  0.20669717  0.03841889  0.74210890     0.07600
H2514       H  0.21345889  0.04764222  0.69551920     0.11300
H2515       H  0.20098350  0.99044567  0.67514957     0.11100
H2516       H  0.19403026  0.98117957  0.72232173     0.07600
C2517       C  0.30459634  0.04026674  0.89311818    -0.11500
C2518       C  0.31151615  0.05400596  0.91345610     0.05700
C2519       C  0.29853085  0.05619161  0.92959900    -0.10300
C2520       C  0.27878814  0.04376670  0.92662951    -0.11900
C2521       C  0.27200376  0.02888734  0.90783875    -0.01700
C2522       C  0.28498667  0.02773659  0.89041330    -0.10800
C2523       C  0.33180383  0.06276361  0.92100714     0.05700
H2524       H  0.30369301  0.06651164  0.94569398     0.07600
H2525       H  0.26900663  0.04461875  0.94061704     0.11100
H2526       H  0.28002654  0.01620106  0.87604760     0.11300
H2527       H  0.31445296  0.03822875  0.88076305     0.07600
C2528       C  0.33742812  0.05190846  0.93643449    -0.11500
C2529       C  0.35675756  0.05791366  0.93977847    -0.10800
C2530       C  0.37086000  0.07494605  0.92781598    -0.01700
C2531       C  0.36526865  0.08653555  0.91388948    -0.11900
C2532       C  0.34577053  0.08036836  0.91030189    -0.10300
H2533       H  0.32679528  0.03820514  0.94462569     0.07600
H2534       H  0.36068433  0.04868310  0.95047866     0.11300
H2535       H  0.37587177  0.09954953  0.90409196     0.11100
H2536       H  0.34160119  0.08877097  0.89806502     0.07600
C2537       C  0.21600680  0.92265892  0.07442423    -0.11500
C2538       C  0.20927397  0.90284898  0.07482937     0.05700
C2539       C  0.19442992  0.89092075  0.05744513    -0.10300
C2540       C  0.18737511  0.89877652  0.03879456    -0.11900
C2541       C  0.19490802  0.91872409  0.03728050    -0.01700
C2542       C  0.20881517  0.93051218  0.05596030    -0.10800
C2543       C  0.21811221  0.89477706  0.09280876     0.05700
H2544       H  0.18891031  0.87560015  0.05740688     0.07600
H2545       H  0.17659532  0.88928134  0.02477461     0.11100
H2546       H  0.21495100  0.94592126  0.05533887     0.11300
H2547       H  0.22716199  0.93213223  0.08802618     0.07600
C2548       C  0.23811597  0.90390130  0.09544276    -0.11500
C2549       C  0.24646919  0.89701665  0.11354330    -0.10800
C2550       C  0.23496443  0.88100776  0.12964747    -0.01700
C2551       C  0.21499765  0.87138488  0.12614349    -0.11900
C2552       C  0.20666888  0.87811619  0.10775716    -0.10300
H2553       H  0.24729147  0.91655884  0.08376398     0.07600
H2554       H  0.26187839  0.90481839  0.11588293     0.11300
H2555       H  0.20576289  0.85899853  0.13825183     0.11100
H2556       H  0.19122684  0.87076017  0.10604536     0.07600
C2557       C  0.47522122  0.92118770  0.64139301    -0.11500
C2558       C  0.47213573  0.90256665  0.64541954     0.05700
C2559       C  0.45362272  0.88695872  0.64149563    -0.10300
C2560       C  0.43851310  0.88981020  0.63400219    -0.11900
C2561       C  0.44137714  0.90839997  0.63046295    -0.01700
C2562       C  0.45999965  0.92408336  0.63413878    -0.10800
C2563       C  0.48774569  0.89920203  0.65498705     0.05700
H2564       H  0.45081719  0.87244146  0.64424762     0.07600
H2565       H  0.42448213  0.87735795  0.63127002     0.11100
H2566       H  0.46281460  0.93861196  0.63152024     0.11300
H2567       H  0.48929622  0.93350753  0.64450605     0.07600
C2568       C  0.50606910  0.90836993  0.64317680    -0.11500
C2569       C  0.52048502  0.90482232  0.65254937    -0.10800
C2570       C  0.51692406  0.89243308  0.67431463    -0.01700
C2571       C  0.49858543  0.88324869  0.68588698    -0.11900
C2572       C  0.48418988  0.88647394  0.67626339    -0.10300
H2573       H  0.50918077  0.91817689  0.62664312     0.07600
H2574       H  0.53453840  0.91222025  0.64343193     0.11300
H2575       H  0.49540874  0.87362511  0.70269027     0.11100
H2576       H  0.47031337  0.87929825  0.68591228     0.07600
C2577       C  0.66677010  0.90309631  0.54983609    -0.11500
C2578       C  0.67076849  0.91237949  0.57458456     0.05700
C2579       C  0.68895112  0.92849857  0.57880823    -0.10300
C2580       C  0.70274136  0.93535797  0.55840828    -0.11900
C2581       C  0.69870792  0.92596065  0.53362459    -0.01700
C2582       C  0.68057629  0.90970439  0.52970343    -0.10800
C2583       C  0.65584144  0.90513525  0.59570459     0.05700
H2584       H  0.69234868  0.93596907  0.59770971     0.07600
H2585       H  0.71653764  0.94794388  0.56204188     0.11100
H2586       H  0.67688205  0.90219153  0.51083271     0.11300
H2587       H  0.65294513  0.89056613  0.54612913     0.07600
C2588       C  0.63705627  0.90072757  0.58964222    -0.11500
C2589       C  0.62281768  0.89354569  0.60930941    -0.10800
C2590       C  0.62696902  0.89029988  0.63539130    -0.01700
C2591       C  0.64573759  0.89449703  0.64134925    -0.11900
C2592       C  0.66006011  0.90201511  0.62177990    -0.10300
H2593       H  0.63344377  0.90305128  0.56969186     0.07600
H2594       H  0.60852690  0.89044824  0.60406603     0.11300
H2595       H  0.64944781  0.89227229  0.66128937     0.11100
H2596       H  0.67437398  0.90511742  0.62689936     0.07600
C2597       C  0.59958074  0.10356187  0.84716117    -0.11500
C2598       C  0.58841329  0.10903113  0.83191133     0.05700
C2599       C  0.59515416  0.11735340  0.80672289    -0.10300
C2600       C  0.61255912  0.12013661  0.79694442    -0.11900
C2601       C  0.62385801  0.11486821  0.81218677    -0.01700
C2602       C  0.61724267  0.10662611  0.83749305    -0.10800
C2603       C  0.56982839  0.10626631  0.84199255     0.05700
H2604       H  0.58681835  0.12152588  0.79437162     0.07600
H2605       H  0.61726675  0.12662915  0.77742937     0.11100
H2606       H  0.62560898  0.10237896  0.84964542     0.11300
H2607       H  0.59479104  0.09720317  0.86671955     0.07600
C2608       C  0.55637575  0.08898548  0.85421156    -0.11500
C2609       C  0.53857912  0.08622849  0.86257074    -0.10800
C2610       C  0.53401297  0.10083422  0.85936647    -0.01700
C2611       C  0.54756182  0.11818114  0.84741751    -0.11900
C2612       C  0.56518502  0.12080979  0.83868400    -0.10300
H2613       H  0.55948169  0.07747139  0.85684588     0.07600
H2614       H  0.52848619  0.07276193  0.87189058     0.11300
H2615       H  0.54447607  0.12970254  0.84463041     0.11100
H2616       H  0.57529964  0.13434136  0.82953817     0.07600
C2617       C  0.62578127  0.02067075  0.72911154    -0.11500
C2618       C  0.60863688  0.01474855  0.74301441     0.05700
C2619       C  0.60441969  0.02857364  0.75259495    -0.10300
C2620       C  0.61785281  0.04816059  0.74975596    -0.11900
C2621       C  0.63568554  0.05402067  0.73762588    -0.01700
C2622       C  0.63919894  0.04008605  0.72652791    -0.10800
C2623       C  0.59737353  0.99446875  0.75122014     0.05700
H2624       H  0.59135202  0.02422916  0.76367411     0.07600
H2625       H  0.61489714  0.05861707  0.75875249     0.11100
H2626       H  0.65278348  0.04418216  0.71704136     0.11300
H2627       H  0.62930315  0.01017624  0.72173301     0.07600
C2628       C  0.58099168  0.98126389  0.73717216    -0.11500
C2629       C  0.57368780  0.96148722  0.74066381    -0.10800
C2630       C  0.58293833  0.95488340  0.75789151    -0.01700
C2631       C  0.59819167  0.96818151  0.77364038    -0.11900
C2632       C  0.60529939  0.98776952  0.77036776    -0.10300
H2633       H  0.57479835  0.98621226  0.72214736     0.07600
H2634       H  0.56205809  0.95150694  0.72807753     0.11300
H2635       H  0.60558551  0.96346123  0.78700634     0.11100
H2636       H  0.61797753  0.99777251  0.78130844     0.07600
C2637       C  0.77465001  0.99335571  0.20953410    -0.11500
C2638       C  0.76889414  0.00120592  0.23028950     0.05700
C2639       C  0.76092995  0.01266977  0.22331022    -0.10300
C2640       C  0.76020366  0.01743450  0.19669632    -0.11900
C2641       C  0.76694306  0.01047993  0.17621454    -0.01700
C2642       C  0.77352728  0.99783172  0.18274452    -0.10800
C2643       C  0.77122655  0.99769367  0.25904273     0.05700
H2644       H  0.75556533  0.01833529  0.23844843     0.07600
H2645       H  0.75491660  0.02711679  0.19214156     0.11100
H2646       H  0.77900579  0.99245989  0.16732474     0.11300
H2647       H  0.78088139  0.98448442  0.21392558     0.07600
C2648       C  0.76957299  0.98025278  0.26726548    -0.11500
C2649       C  0.76995675  0.97629673  0.29431541    -0.10800
C2650       C  0.77165250  0.98949445  0.31405777    -0.01700
C2651       C  0.77466837  0.00745780  0.30593648    -0.11900
C2652       C  0.77454523  0.01154093  0.27873177    -0.10300
H2653       H  0.76700880  0.96918003  0.25297873     0.07600
H2654       H  0.76785889  0.96235777  0.29979730     0.11300
H2655       H  0.77611873  0.01796396  0.32057002     0.11100
H2656       H  0.77661472  0.02544235  0.27321338     0.07600
C2657       C  0.75974044  0.11372993  0.87695278    -0.11500
C2658       C  0.75092026  0.10824293  0.90200308     0.05700
C2659       C  0.73474557  0.10999642  0.90728741    -0.10300
C2660       C  0.72738965  0.11693430  0.88763873    -0.11900
C2661       C  0.73634489  0.12260282  0.86256997    -0.01700
C2662       C  0.75262357  0.12094257  0.85752126    -0.10800
C2663       C  0.75881363  0.10097093  0.92263767     0.05700
H2664       H  0.72767755  0.10576279  0.92650469     0.07600
H2665       H  0.71479881  0.11796266  0.89210453     0.11100
H2666       H  0.75978735  0.12500602  0.83836379     0.11300
H2667       H  0.77230980  0.11264842  0.87253027     0.07600
C2668       C  0.76276935  0.08623866  0.91679719    -0.11500
C2669       C  0.77005959  0.07928250  0.93651270    -0.10800
C2670       C  0.77388940  0.08724562  0.96223465    -0.01700
C2671       C  0.77028526  0.10228438  0.96774846    -0.11900
C2672       C  0.76268205  0.10894662  0.94824423    -0.10300
H2673       H  0.75986223  0.07987728  0.89711737     0.07600
H2674       H  0.77261923  0.06765993  0.93168048     0.11300
H2675       H  0.77289372  0.10864241  0.98740845     0.11100
H2676       H  0.75992979  0.12044289  0.95310540     0.07600
C2677       C  0.64333676  0.11019590  0.61361346    -0.11500
C2678       C  0.65713424  0.11721593  0.59301810     0.05700
C2679       C  0.67646665  0.12847731  0.59972572    -0.10300
C2680       C  0.68202436  0.13241719  0.62617423    -0.11900
C2681       C  0.66845898  0.12502384  0.64697055    -0.01700
C2682       C  0.64896806  0.11403376  0.64044013    -0.10800
C2683       C  0.65183122  0.11224816  0.56463186     0.05700
H2684       H  0.68750241  0.13377944  0.58455393     0.07600
H2685       H  0.69720650  0.14095104  0.63020470     0.11100
H2686       H  0.63817806  0.10819600  0.65595511     0.11300
H2687       H  0.62824620  0.10164704  0.60900623     0.07600
C2688       C  0.63730851  0.09380951  0.55764741    -0.11500
C2689       C  0.63270974  0.08897416  0.53093525    -0.10800
C2690       C  0.64259355  0.10241694  0.51059396    -0.01700
C2691       C  0.65754199  0.12063529  0.51738175    -0.11900
C2692       C  0.66199564  0.12557742  0.54418549    -0.10300
H2693       H  0.62954968  0.08306850  0.57279423     0.07600
H2694       H  0.62108700  0.07477774  0.52615847     0.11300
H2695       H  0.66508855  0.13133820  0.50209403     0.11100
H2696       H  0.67313363  0.14000249  0.54889864     0.07600
C2697       C  0.52083169  0.11781522  0.36524514    -0.11500
C2698       C  0.50564413  0.10307890  0.35091289     0.05700
C2699       C  0.50604387  0.08621313  0.34558753    -0.10300
C2700       C  0.52151212  0.08427113  0.35374657    -0.11900
C2701       C  0.53712861  0.09923984  0.36725711    -0.01700
C2702       C  0.53650309  0.11596580  0.37322654    -0.10800
C2703       C  0.48993282  0.10558879  0.34006733     0.05700
H2704       H  0.49441333  0.07455428  0.33485253     0.07600
H2705       H  0.52133270  0.07108188  0.34897109     0.11100
H2706       H  0.54818030  0.12767837  0.38379321     0.11300
H2707       H  0.52085953  0.13099853  0.36949735     0.07600
C2708       C  0.48040579  0.11249662  0.35605798    -0.11500
C2709       C  0.46581279  0.11510600  0.34531348    -0.10800
C2710       C  0.46067238  0.11109055  0.31828077    -0.01700
C2711       C  0.47022075  0.10408118  0.30242478    -0.11900
C2712       C  0.48458294  0.10127685  0.31322179    -0.10300
H2713       H  0.48424359  0.11584415  0.37685253     0.07600
H2714       H  0.45889610  0.12070735  0.35799121     0.11300
H2715       H  0.46675212  0.10093673  0.28149688     0.11100
H2716       H  0.49184818  0.09613451  0.30038182     0.07600
C2717       C  0.48049291  0.00064320  0.53093577    -0.11500
C2718       C  0.47766286  0.00432759  0.50430967     0.05700
C2719       C  0.45900333  0.99586416  0.49424494    -0.10300
C2720       C  0.44355546  0.98330554  0.50999891    -0.11900
C2721       C  0.44641289  0.97892003  0.53620148    -0.01700
C2722       C  0.46495246  0.98807362  0.54681818    -0.10800
C2723       C  0.49412861  0.01659721  0.48685134     0.05700
H2724       H  0.45637415  0.99882085  0.47407106     0.07600
H2725       H  0.42933370  0.97674409  0.50145546     0.11100
H2726       H  0.46750308  0.98491696  0.56692321     0.11300
H2727       H  0.49478014  0.00695774  0.53917139     0.07600
C2728       C  0.50944711  0.03353929  0.49683870    -0.11500
C2729       C  0.52545589  0.04459788  0.48102792    -0.10800
C2730       C  0.52662190  0.03894959  0.45484041    -0.01700
C2731       C  0.51096215  0.02240382  0.44437213    -0.11900
C2732       C  0.49484520  0.01128410  0.46029594    -0.10300
H2733       H  0.50911051  0.03818195  0.51699158     0.07600
H2734       H  0.53716416  0.05743832  0.48961394     0.11300
H2735       H  0.51148475  0.01766023  0.42435362     0.11100
H2736       H  0.48322441  0.99818401  0.45215207     0.07600
C2737       C  0.71968060  0.04428373  0.43034079    -0.11500
C2738       C  0.71815006  0.05215151  0.40607215     0.05700
C2739       C  0.72583157  0.04869574  0.38283305    -0.10300
C2740       C  0.73357451  0.03648421  0.38359928    -0.11900
C2741       C  0.73364317  0.02753826  0.40757978    -0.01700
C2742       C  0.72720220  0.03200625  0.43101940    -0.10800
C2743       C  0.70573309  0.06094066  0.40458928     0.05700
H2744       H  0.72490952  0.05461975  0.36383848     0.07600
H2745       H  0.73822455  0.03299464  0.36524725     0.11100
H2746       H  0.72690769  0.02501408  0.44966207     0.11300
H2747       H  0.71365233  0.04635279  0.44847605     0.07600
C2748       C  0.69179239  0.05498164  0.38452457    -0.11500
C2749       C  0.67739543  0.05972103  0.38576627    -0.10800
C2750       C  0.67665172  0.07076119  0.40687494    -0.01700
C2751       C  0.69131608  0.07797381  0.42599973    -0.11900
C2752       C  0.70565671  0.07292420  0.42501496    -0.10300
H2753       H  0.69125267  0.04559771  0.36870889     0.07600
H2754       H  0.66644352  0.05426999  0.37047706     0.11300
H2755       H  0.69114376  0.08665589  0.44233682     0.11100
H2756       H  0.71629864  0.07782442  0.44069051     0.07600
C2757       C  0.55518175  0.89324069  0.89058526    -0.11500
C2758       C  0.53598856  0.88566336  0.89826700     0.05700
C2759       C  0.52181589  0.87895583  0.87821321    -0.10300
C2760       C  0.52669752  0.87908546  0.85130818    -0.11900
C2761       C  0.54577011  0.88565058  0.84409628    -0.01700
C2762       C  0.55997197  0.89308344  0.86390132    -0.10800
C2763       C  0.53102254  0.88525851  0.92700639     0.05700
H2764       H  0.50686814  0.87296330  0.88335453     0.07600
H2765       H  0.51549437  0.87306077  0.83641112     0.11100
H2766       H  0.57482606  0.89833043  0.85875401     0.11300
H2767       H  0.56655721  0.89916442  0.90522662     0.07600
C2768       C  0.54149029  0.88228610  0.94719680    -0.11500
C2769       C  0.53829428  0.88426671  0.97419852    -0.10800
C2770       C  0.52451542  0.88918229  0.98149724    -0.01700
C2771       C  0.51312761  0.89071029  0.96139644    -0.11900
C2772       C  0.51640531  0.88889159  0.93456732    -0.10300
H2773       H  0.55249794  0.87888995  0.94211853     0.07600
H2774       H  0.54716871  0.88281923  0.98918679     0.11300
H2775       H  0.50214208  0.89419748  0.96627493     0.11100
H2776       H  0.50807554  0.89131566  0.91974994     0.07600
C2777       C  0.36888792  0.89644591  0.14377588    -0.11500
C2778       C  0.38573297  0.90514790  0.15917588     0.05700
C2779       C  0.38512027  0.91236712  0.18443963    -0.10300
C2780       C  0.36805478  0.91035687  0.19448512    -0.11900
C2781       C  0.35106775  0.90110312  0.17955555    -0.01700
C2782       C  0.35176222  0.89456921  0.15378282    -0.10800
C2783       C  0.40387570  0.90648770  0.14948087     0.05700
H2784       H  0.39773574  0.91901352  0.19694383     0.07600
H2785       H  0.36806928  0.91564487  0.21433456     0.11100
H2786       H  0.33891716  0.88733235  0.14178087     0.11300
H2787       H  0.36892546  0.89097273  0.12408246     0.07600
C2788       C  0.40383223  0.89105348  0.13631824    -0.11500
C2789       C  0.42108256  0.89212821  0.12860776    -0.10800
C2790       C  0.43878734  0.90873194  0.13366155    -0.01700
C2791       C  0.43873818  0.92418351  0.14658149    -0.11900
C2792       C  0.42156176  0.92306221  0.15438930    -0.10300
H2793       H  0.39048566  0.87798186  0.13250023     0.07600
H2794       H  0.42053783  0.87995546  0.11864861     0.11300
H2795       H  0.45203102  0.93719986  0.15084008     0.11100
H2796       H  0.42213865  0.93529312  0.16420291     0.07600
C2797       C  0.53162574  0.99200923  0.22021221    -0.11500
C2798       C  0.54740711  0.99575664  0.23616479     0.05700
C2799       C  0.55549829  0.98389646  0.23385380    -0.10300
C2800       C  0.54829380  0.96894031  0.21527998    -0.11900
C2801       C  0.53302091  0.96575007  0.19844498    -0.01700
C2802       C  0.52456935  0.97724833  0.20150545    -0.10800
C2803       C  0.55543694  0.01213832  0.25492222     0.05700
H2804       H  0.56748663  0.98630553  0.24627760     0.07600
H2805       H  0.55512658  0.96035000  0.21344776     0.11100
H2806       H  0.51273072  0.97513889  0.18898379     0.11300
H2807       H  0.52512013  0.00092212  0.22159828     0.07600
C2808       C  0.57526896  0.02483805  0.25628020    -0.11500
C2809       C  0.58279365  0.03998743  0.27453069    -0.10800
C2810       C  0.57062044  0.04254408  0.29202134    -0.01700
C2811       C  0.55073201  0.03022346  0.28987659    -0.11900
C2812       C  0.54323752  0.01523637  0.27150344    -0.10300
H2813       H  0.58494858  0.02294220  0.24335192     0.07600
H2814       H  0.59817443  0.04916642  0.27570782     0.11300
H2815       H  0.54093299  0.03177754  0.30299861     0.11100
H2816       H  0.52789927  0.00567050  0.27084748     0.07600
C2817       C  0.67418374  0.94950824  0.06708603    -0.11500
C2818       C  0.66067386  0.95429458  0.07645216     0.05700
C2819       C  0.66702113  0.97120849  0.09107394    -0.10300
C2820       C  0.68647799  0.98398684  0.09426761    -0.11900
C2821       C  0.70015353  0.98018940  0.08298218    -0.01700
C2822       C  0.69391014  0.96242542  0.07039042    -0.10800
C2823       C  0.64035503  0.94385085  0.06803470     0.05700
H2824       H  0.65684868  0.97511980  0.09859983     0.07600
H2825       H  0.69086235  0.99748300  0.10420638     0.11100
H2826       H  0.70417831  0.95922282  0.06133533     0.11300
H2827       H  0.66955478  0.93652408  0.05569646     0.07600
C2828       C  0.63357351  0.95382949  0.05278387    -0.11500
C2829       C  0.61400542  0.94690143  0.05022422    -0.10800
C2830       C  0.60067319  0.92979914  0.06290674    -0.01700
C2831       C  0.60735716  0.91873546  0.07587797    -0.11900
C2832       C  0.62716227  0.92577991  0.07851125    -0.10300
H2833       H  0.64350334  0.96776076  0.04446178     0.07600
H2834       H  0.60932406  0.95569792  0.03997617     0.11300
H2835       H  0.59740856  0.90557612  0.08600560     0.11100
H2836       H  0.63211611  0.91788996  0.09043484     0.07600
C2837       C  0.49932819  0.00214750  0.03150843    -0.11500
C2838       C  0.48910377  0.99695034  0.00728914     0.05700
C2839       C  0.48003132  0.97767371  0.99930397    -0.10300
C2840       C  0.48150803  0.96406195  0.01478727    -0.11900
C2841       C  0.49178557  0.96932818  0.03885227    -0.01700
C2842       C  0.50045008  0.98843281  0.04727483    -0.10800
C2843       C  0.48734874  0.01141685  0.99093048     0.05700
H2844       H  0.47165715  0.97301396  0.98117200     0.07600
H2845       H  0.47472901  0.94939962  0.00780900     0.11100
H2846       H  0.50881677  0.99294170  0.06544920     0.11300
H2847       H  0.50684861  0.01689925  0.03808948     0.07600
C2848       C  0.48632161  0.02642039  0.00347876    -0.11500
C2849       C  0.48357688  0.03942682  0.98859927    -0.10800
C2850       C  0.48145734  0.03767015  0.96071379    -0.01700
C2851       C  0.48297720  0.02301091  0.94792341    -0.11900
C2852       C  0.48598559  0.01005483  0.96288611    -0.10300
H2853       H  0.48695513  0.02781072  0.02497423     0.07600
H2854       H  0.48258210  0.05059043  0.99920779     0.11300
H2855       H  0.48148566  0.02132237  0.92647713     0.11100
H2856       H  0.48711870  0.99891732  0.95246475     0.07600
C2857       C  0.43078941  0.16195002  0.81033266    -0.11500
C2858       C  0.42236758  0.17018575  0.82603069     0.05700
C2859       C  0.41630685  0.16328420  0.85198147    -0.10300
C2860       C  0.41885501  0.14865222  0.86230016    -0.11900
C2861       C  0.42737501  0.14039761  0.84683518    -0.01700
C2862       C  0.43313694  0.14703695  0.82058255    -0.10800
C2863       C  0.42007415  0.18619475  0.81597320     0.05700
H2864       H  0.40996484  0.16954604  0.86455626     0.07600
H2865       H  0.41429706  0.14393002  0.88259658     0.11100
H2866       H  0.43991455  0.14108891  0.80827525     0.11300
H2867       H  0.43551929  0.16705016  0.79020695     0.07600
C2868       C  0.43565402  0.20266992  0.80503709    -0.11500
C2869       C  0.43381331  0.21851213  0.79804129    -0.10800
C2870       C  0.41629376  0.21806384  0.80163616    -0.01700
C2871       C  0.40059978  0.20128657  0.81193093    -0.11900
C2872       C  0.40250308  0.18558677  0.81908635    -0.10300
H2873       H  0.44939146  0.20349456  0.80267543     0.07600
H2874       H  0.44613669  0.23113561  0.79000672     0.11300
H2875       H  0.38682443  0.20029844  0.81476000     0.11100
H2876       H  0.39025439  0.17296682  0.82730853     0.07600
C2877       C  0.33218910  0.17609083  0.70352311    -0.11500
C2878       C  0.33747821  0.17540574  0.67696484     0.05700
C2879       C  0.35421933  0.19083243  0.66660956    -0.10300
C2880       C  0.36512647  0.20696049  0.68209773    -0.11900
C2881       C  0.35955542  0.20803846  0.70834928    -0.01700
C2882       C  0.34318489  0.19229771  0.71915004    -0.10800
C2883       C  0.32522794  0.15899757  0.65970871     0.05700
H2884       H  0.35879797  0.19050263  0.64640161     0.07600
H2885       H  0.37780097  0.21876768  0.67324457     0.11100
H2886       H  0.33851009  0.19278377  0.73924085     0.11300
H2887       H  0.31920232  0.16439273  0.71188618     0.07600
C2888       C  0.31666043  0.14031023  0.66986102    -0.11500
C2889       C  0.30403099  0.12495159  0.65418457    -0.10800
C2890       C  0.29974413  0.12799187  0.62802868    -0.01700
C2891       C  0.30897891  0.14656321  0.61739032    -0.11900
C2892       C  0.32157780  0.16198632  0.63317887    -0.10300
H2893       H  0.31956495  0.13760128  0.69002181     0.07600
H2894       H  0.29732280  0.11069174  0.66276302     0.11300
H2895       H  0.30584422  0.14925054  0.59734940     0.11100
H2896       H  0.32791641  0.17631826  0.62495311     0.07600
C2897       C  0.20453248  0.08838400  0.03176197    -0.11500
C2898       C  0.21961483  0.08754213  0.01902039     0.05700
C2899       C  0.23703065  0.10462637  0.01516030    -0.10300
C2900       C  0.23933744  0.12218880  0.02363995    -0.11900
C2901       C  0.22417878  0.12321638  0.03590859    -0.01700
C2902       C  0.20673504  0.10604511  0.03994368    -0.10800
C2903       C  0.21706129  0.06917392  0.00836252     0.05700
H2904       H  0.24890764  0.10437486  0.00548611     0.07600
H2905       H  0.25299222  0.13502369  0.02023523     0.11100
H2906       H  0.19476643  0.10624225  0.04939748     0.11300
H2907       H  0.19089837  0.07543792  0.03476945     0.07600
C2908       C  0.21010831  0.05266032  0.02440554    -0.11500
C2909       C  0.20795526  0.03551698  0.01387655    -0.10800
C2910       C  0.21237904  0.03447958  0.98694573    -0.01700
C2911       C  0.21938075  0.05111466  0.97110728    -0.11900
C2912       C  0.22177137  0.06819834  0.98169613    -0.10300
H2913       H  0.20648681  0.05307948  0.04510348     0.07600
H2914       H  0.20247834  0.02300654  0.02665000     0.11300
H2915       H  0.22294421  0.05095522  0.95031764     0.11100
H2916       H  0.22703762  0.08065598  0.96884353     0.07600
C2917       C  0.32735193  0.22316965  0.88848770    -0.11500
C2918       C  0.32467344  0.23542603  0.90553275     0.05700
C2919       C  0.33730350  0.25526565  0.90385456    -0.10300
C2920       C  0.35229411  0.26274119  0.88541053    -0.11900
C2921       C  0.35484319  0.25053811  0.86802676    -0.01700
C2922       C  0.34222937  0.23064637  0.86983664    -0.10800
C2923       C  0.30907395  0.22759126  0.92553999     0.05700
H2924       H  0.33567119  0.26500026  0.91700109     0.07600
H2925       H  0.36160021  0.27812823  0.88436101     0.11100
H2926       H  0.34369104  0.22084478  0.85661389     0.11300
H2927       H  0.31773389  0.20782573  0.88930391     0.07600
C2928       C  0.29777722  0.23614878  0.92942112    -0.11500
C2929       C  0.28400187  0.22964503  0.94963482    -0.10800
C2930       C  0.28142273  0.21460921  0.96658742    -0.01700
C2931       C  0.29238933  0.20571891  0.96220965    -0.11900
C2932       C  0.30597429  0.21205548  0.94174586    -0.10300
H2933       H  0.29978292  0.24804204  0.91701056     0.07600
H2934       H  0.27589202  0.23688634  0.95263191     0.11300
H2935       H  0.29074496  0.19411023  0.97495171     0.11100
H2936       H  0.31458149  0.20529347  0.93924929     0.07600
C2937       C  0.34382982  0.16491975  0.16146940    -0.11500
C2938       C  0.33107870  0.16952937  0.17386490     0.05700
C2939       C  0.33188990  0.17169369  0.20183497    -0.10300
C2940       C  0.34502622  0.16908197  0.21701346    -0.11900
C2941       C  0.35773397  0.16442687  0.20449231    -0.01700
C2942       C  0.35697794  0.16246278  0.17651856    -0.10800
C2943       C  0.31684501  0.17175539  0.15762817     0.05700
H2944       H  0.32246517  0.17555531  0.21199702     0.07600
H2945       H  0.34530321  0.17080903  0.23845650     0.11100
H2946       H  0.36640946  0.15872684  0.16609635     0.11300
H2947       H  0.34341822  0.16280502  0.14010467     0.07600
C2948       C  0.32159359  0.18029007  0.13210454    -0.11500
C2949       C  0.30826734  0.18271402  0.11718899    -0.10800
C2950       C  0.29003603  0.17689822  0.12766431    -0.01700
C2951       C  0.28510325  0.16785771  0.15275496    -0.11900
C2952       C  0.29830118  0.16523365  0.16748860    -0.10300
H2953       H  0.33580305  0.18563511  0.12396387     0.07600
H2954       H  0.31250952  0.18990463  0.09803442     0.11300
H2955       H  0.27106652  0.16306316  0.16121847     0.11100
H2956       H  0.29397612  0.15813909  0.18668403     0.07600
C2957       C  0.36758988  0.40883880  0.74983220    -0.11500
C2958       C  0.36202026  0.39055417  0.76013809     0.05700
C2959       C  0.34516081  0.38095286  0.77520043    -0.10300
C2960       C  0.33321556  0.38868915  0.77806401    -0.11900
C2961       C  0.33782177  0.40620354  0.76586050    -0.01700
C2962       C  0.35552360  0.41666126  0.75269627    -0.10800
C2963       C  0.37166281  0.37985656  0.75205266     0.05700
H2964       H  0.34064289  0.36684885  0.78334718     0.07600
H2965       H  0.31968473  0.38033120  0.78834945     0.11100
H2966       H  0.35927239  0.43005346  0.74280003     0.11300
H2967       H  0.38050520  0.41638159  0.73799285     0.07600
C2968       C  0.36132373  0.36322534  0.73679691    -0.11500
C2969       C  0.36832663  0.35075030  0.73280500    -0.10800
C2970       C  0.38582384  0.35456553  0.74409160    -0.01700
C2971       C  0.39695252  0.37199024  0.75761173    -0.11900
C2972       C  0.38986682  0.38458955  0.76162575    -0.10300
H2973       H  0.34729926  0.35939429  0.72912138     0.07600
H2974       H  0.35947352  0.33747758  0.72223106     0.11300
H2975       H  0.41036939  0.37514666  0.76679058     0.11100
H2976       H  0.39800089  0.39734225  0.77354519     0.07600
C2977       C  0.20047706  0.22584100  0.22110812    -0.11500
C2978       C  0.20671176  0.21843267  0.24191177     0.05700
C2979       C  0.21489370  0.20719587  0.23535085    -0.10300
C2980       C  0.21763560  0.20420177  0.20883525    -0.11900
C2981       C  0.21258817  0.21262652  0.18803141    -0.01700
C2982       C  0.20353223  0.22309755  0.19439747    -0.10800
C2983       C  0.20587652  0.22338160  0.27021696     0.05700
H2984       H  0.22005878  0.20139937  0.25063572     0.07600
H2985       H  0.22447481  0.19583393  0.20477824     0.11100
H2986       H  0.19929769  0.22958636  0.17885595     0.11300
H2987       H  0.19356636  0.23409357  0.22542674     0.07600
C2988       C  0.20840922  0.24145581  0.27660314    -0.11500
C2989       C  0.20756537  0.24627040  0.30297401    -0.10800
C2990       C  0.20454131  0.23330150  0.32369752    -0.01700
C2991       C  0.20286889  0.21556512  0.31770927    -0.11900
C2992       C  0.20331567  0.21054154  0.29113361    -0.10300
H2993       H  0.21113284  0.25199846  0.26126012     0.07600
H2994       H  0.20910107  0.26015517  0.30718742     0.11300
H2995       H  0.20033135  0.20529123  0.33340847     0.11100
H2996       H  0.20116107  0.19642231  0.28701602     0.07600
C2997       C  0.21424182  0.14401457  0.53407351    -0.11500
C2998       C  0.22835666  0.15864926  0.51815824     0.05700
C2999       C  0.24412742  0.15697322  0.50990403    -0.10300
C3000       C  0.24572064  0.14104606  0.51728045    -0.11900
C3001       C  0.23143794  0.12623817  0.53277955    -0.01700
C3002       C  0.21568257  0.12793000  0.54112086    -0.10800
C3003       C  0.22607671  0.17499914  0.50884068     0.05700
H3004       H  0.25528051  0.16803657  0.49772453     0.07600
H3005       H  0.25802341  0.14019760  0.51050808     0.11100
H3006       H  0.20448078  0.11684201  0.55322292     0.11300
H3007       H  0.20181578  0.14476602  0.54048609     0.07600
C3008       C  0.22950387  0.18073538  0.48200180    -0.11500
C3009       C  0.22605397  0.19502642  0.47241490    -0.10800
C3010       C  0.21911488  0.20412630  0.48938465    -0.01700
C3011       C  0.21640766  0.19894751  0.51654539    -0.11900
C3012       C  0.21974978  0.18445564  0.52613178    -0.10300
H3013       H  0.23423914  0.17368027  0.46811332     0.07600
H3014       H  0.22846598  0.19863083  0.45140843     0.11300
H3015       H  0.21121405  0.20570193  0.53022890     0.11100
H3016       H  0.21722745  0.18051093  0.54702323     0.07600
C3017       C  0.21581612  0.31720026  0.58128213    -0.11500
C3018       C  0.21922444  0.33565273  0.57485047     0.05700
C3019       C  0.21627398  0.33957448  0.54855923    -0.10300
C3020       C  0.20964395  0.32523432  0.52918114    -0.11900
C3021       C  0.20613792  0.30671867  0.53553687    -0.01700
C3022       C  0.20952380  0.30291423  0.56174083    -0.10800
C3023       C  0.22540050  0.35065751  0.59562846     0.05700
H3024       H  0.21872393  0.35364940  0.54313877     0.07600
H3025       H  0.20738109  0.32870702  0.50910840     0.11100
H3026       H  0.20702661  0.28883391  0.56721756     0.11300
H3027       H  0.21813386  0.31388696  0.60141935     0.07600
C3028       C  0.21549182  0.34659913  0.61993347    -0.11500
C3029       C  0.22132415  0.36056816  0.63975566    -0.10800
C3030       C  0.23745117  0.37883489  0.63593511    -0.01700
C3031       C  0.24717802  0.38301081  0.61136136    -0.11900
C3032       C  0.24109756  0.36909891  0.59131251    -0.10300
H3033       H  0.20319831  0.33257146  0.62358523     0.07600
H3034       H  0.21354549  0.35680841  0.65845259     0.11300
H3035       H  0.25964812  0.39692659  0.60777597     0.11100
H3036       H  0.24895433  0.37257065  0.57268709     0.07600
C3037       C  0.33211306  0.46362766  0.88599390    -0.11500
C3038       C  0.32006122  0.45232231  0.90695291     0.05700
C3039       C  0.30180363  0.43713744  0.90084779    -0.10300
C3040       C  0.29560220  0.43341252  0.87453436    -0.11900
C3041       C  0.30749770  0.44473954  0.85354110    -0.01700
C3042       C  0.32590962  0.45981027  0.85946391    -0.10800
C3043       C  0.32668080  0.45569882  0.93502820     0.05700
H3044       H  0.29237395  0.42787623  0.91639356     0.07600
H3045       H  0.28139389  0.42151826  0.87066233     0.11100
H3046       H  0.33531331  0.46884593  0.84372429     0.11300
H3047       H  0.34624626  0.47555467  0.89013172     0.07600
C3048       C  0.34549626  0.46044675  0.94098808    -0.11500
C3049       C  0.35168199  0.46287834  0.96730795    -0.10800
C3050       C  0.33920019  0.46054504  0.98847797    -0.01700
C3051       C  0.32031219  0.45570826  0.98266036    -0.11900
C3052       C  0.31412239  0.45338465  0.95611868    -0.10300
H3053       H  0.35537595  0.46187917  0.92532669     0.07600
H3054       H  0.36630761  0.46638911  0.97103455     0.11300
H3055       H  0.31044685  0.45395546  0.99852125     0.11100
H3056       H  0.29954632  0.44989228  0.95208697     0.07600
C3057       C  0.27573852  0.36329739  0.08883549    -0.11500
C3058       C  0.28076558  0.34964968  0.08113753     0.05700
C3059       C  0.29817465  0.35573350  0.06787156    -0.10300
C3060       C  0.31113295  0.37519108  0.06441013    -0.11900
C3061       C  0.30699714  0.38904231  0.07422551    -0.01700
C3062       C  0.28878953  0.38294138  0.08530424    -0.10800
C3063       C  0.26970306  0.32945052  0.08994984     0.05700
H3064       H  0.30224091  0.34538857  0.06164785     0.07600
H3065       H  0.32495701  0.37942109  0.05561356     0.11100
H3066       H  0.28527533  0.39330256  0.09321472     0.11300
H3067       H  0.26237179  0.35884692  0.09917432     0.07600
C3068       C  0.27839975  0.32267320  0.10775361    -0.11500
C3069       C  0.27085184  0.30306962  0.11160807    -0.10800
C3070       C  0.25439299  0.28982006  0.09782283    -0.01700
C3071       C  0.24459151  0.29656047  0.08193223    -0.11900
C3072       C  0.25227125  0.31635575  0.07793947    -0.10300
H3073       H  0.29183347  0.33256842  0.11723732     0.07600
H3074       H  0.27867855  0.29821013  0.12385627     0.11300
H3075       H  0.23203742  0.28658324  0.07076755     0.11100
H3076       H  0.24543450  0.32134013  0.06400325     0.07600
C3077       C  0.45478223  0.36322546  0.56861234    -0.11500
C3078       C  0.44924664  0.34411440  0.57413398     0.05700
C3079       C  0.44611851  0.33156345  0.55271229    -0.10300
C3080       C  0.44750247  0.33779637  0.52628999    -0.11900
C3081       C  0.45228942  0.35675551  0.52087526    -0.01700
C3082       C  0.45630728  0.36946723  0.54238211    -0.10800
C3083       C  0.44445044  0.33687241  0.60188360     0.05700
H3084       H  0.44212405  0.31677980  0.55640469     0.07600
H3085       H  0.44458867  0.32775996  0.51020637     0.11100
H3086       H  0.46008910  0.38423941  0.53908429     0.11300
H3087       H  0.45699475  0.37317573  0.58454223     0.07600
C3088       C  0.45494289  0.34809940  0.62388824    -0.11500
C3089       C  0.44891913  0.34165236  0.65003066    -0.10800
C3090       C  0.43242083  0.32384180  0.65446245    -0.01700
C3091       C  0.42209760  0.31272095  0.63239002    -0.11900
C3092       C  0.42800011  0.31914679  0.60654078    -0.10300
H3093       H  0.46774339  0.36185163  0.62088378     0.07600
H3094       H  0.45721372  0.35043458  0.66666142     0.11300
H3095       H  0.40916412  0.29901376  0.63502596     0.11100
H3096       H  0.41924731  0.31042564  0.59017160     0.07600
C3097       C  0.44627429  0.25351824  0.32696024    -0.11500
C3098       C  0.43196841  0.25855985  0.32456790     0.05700
C3099       C  0.41439115  0.24526163  0.31296216    -0.10300
C3100       C  0.41113058  0.22732431  0.30423061    -0.11900
C3101       C  0.42548454  0.22232858  0.30647872    -0.01700
C3102       C  0.44313615  0.23573022  0.31784434    -0.10800
C3103       C  0.43518716  0.27739630  0.33469460     0.05700
H3104       H  0.40300250  0.24860383  0.31108354     0.07600
H3105       H  0.39740393  0.21741911  0.29550625     0.11100
H3106       H  0.45451278  0.23238704  0.31997172     0.11300
H3107       H  0.46000775  0.26344057  0.33565680     0.07600
C3108       C  0.44384182  0.28433473  0.35964887    -0.11500
C3109       C  0.44607503  0.30152172  0.36980627    -0.10800
C3110       C  0.44004258  0.31246391  0.35509712    -0.01700
C3111       C  0.43183768  0.30580970  0.32982284    -0.11900
C3112       C  0.42928722  0.28840194  0.31985338    -0.10300
H3113       H  0.44846768  0.27620685  0.37166414     0.07600
H3114       H  0.45259082  0.30627618  0.38925019     0.11300
H3115       H  0.42705241  0.31387668  0.31797030     0.11100
H3116       H  0.42276287  0.28356905  0.30043952     0.07600
C3117       C  0.40764759  0.44867850  0.24995630    -0.11500
C3118       C  0.42439643  0.44783820  0.24519268     0.05700
C3119       C  0.43421934  0.45493052  0.22108028    -0.10300
C3120       C  0.42721584  0.46231939  0.20177400    -0.11900
C3121       C  0.41004507  0.46251449  0.20597585    -0.01700
C3122       C  0.40044767  0.45583145  0.23043677    -0.10800
C3123       C  0.43171424  0.43973330  0.26542080     0.05700
H3124       H  0.44732518  0.45473329  0.21716254     0.07600
H3125       H  0.43499935  0.46731393  0.18316767     0.11100
H3126       H  0.38723950  0.45582998  0.23430505     0.11300
H3127       H  0.39985487  0.44331537  0.26850690     0.07600
C3128       C  0.43314181  0.44543769  0.29206104    -0.11500
C3129       C  0.44001726  0.43795052  0.31132382    -0.10800
C3130       C  0.44535105  0.42433975  0.30449508    -0.01700
C3131       C  0.44391215  0.41852541  0.27782833    -0.11900
C3132       C  0.43732502  0.42634863  0.25834052    -0.10300
H3133       H  0.42908740  0.45584752  0.29795242     0.07600
H3134       H  0.44082138  0.44259346  0.33178350     0.11300
H3135       H  0.44797364  0.40809446  0.27208770     0.11100
H3136       H  0.43628176  0.42171362  0.23784055     0.07600
C3137       C  0.30044161  0.26810830  0.42809579    -0.11500
C3138       C  0.31412370  0.28600108  0.41769116     0.05700
C3139       C  0.30791988  0.29655098  0.40257554    -0.10300
C3140       C  0.28844380  0.29012782  0.39953236    -0.11900
C3141       C  0.27464317  0.27287563  0.41137052    -0.01700
C3142       C  0.28078190  0.26152658  0.42482105    -0.10800
C3143       C  0.33453110  0.29557218  0.42572586     0.05700
H3144       H  0.31824208  0.31040991  0.39445969     0.07600
H3145       H  0.28417798  0.29919002  0.38909896     0.11100
H3146       H  0.27045344  0.24831447  0.43449198     0.11300
H3147       H  0.30491822  0.25985093  0.44009579     0.07600
C3148       C  0.34763155  0.29111361  0.41389153    -0.11500
C3149       C  0.36748363  0.30366619  0.41672283    -0.10800
C3150       C  0.37431600  0.32083064  0.43118437    -0.01700
C3151       C  0.36109087  0.32422113  0.44479957    -0.11900
C3152       C  0.34147020  0.31172508  0.44217195    -0.10300
H3153       H  0.34256075  0.27876658  0.40097397     0.07600
H3154       H  0.37736581  0.30080604  0.40579937     0.11300
H3155       H  0.36593212  0.33729279  0.45608375     0.11100
H3156       H  0.33162207  0.31541423  0.45147840     0.07600
C3157       C  0.47445330  0.38742670  0.85631331    -0.11500
C3158       C  0.49134332  0.39825570  0.84146480     0.05700
C3159       C  0.49288829  0.39163535  0.81623573    -0.10300
C3160       C  0.47786534  0.37468330  0.80594520    -0.11900
C3161       C  0.46099540  0.36372941  0.82078544    -0.01700
C3162       C  0.45948266  0.37021101  0.84618044    -0.10800
C3163       C  0.50729390  0.41655338  0.85188314     0.05700
H3164       H  0.50563337  0.39977448  0.80423414     0.07600
H3165       H  0.47952988  0.37008485  0.78633446     0.11100
H3166       H  0.44663176  0.36214252  0.85799634     0.11300
H3167       H  0.47292831  0.39219634  0.87586433     0.07600
C3168       C  0.50372745  0.43050259  0.86282588    -0.11500
C3169       C  0.51889363  0.44819748  0.87115128    -0.10800
C3170       C  0.53794400  0.45220700  0.86910285    -0.01700
C3171       C  0.54144056  0.43802941  0.85875608    -0.11900
C3172       C  0.52630693  0.42048279  0.85003436    -0.10300
H3173       H  0.48922476  0.42789908  0.86430520     0.07600
H3174       H  0.51570215  0.45874909  0.87920356     0.11300
H3175       H  0.55592777  0.44063650  0.85690148     0.11100
H3176       H  0.52945824  0.40993538  0.84184560     0.07600
C3177       C  0.49838709  0.50758704  0.97008778    -0.11500
C3178       C  0.50085371  0.51174861  0.99759555     0.05700
C3179       C  0.51889631  0.51815844  0.00896628    -0.10300
C3180       C  0.53404563  0.52009365  0.99343366    -0.11900
C3181       C  0.53163888  0.51570281  0.96599929    -0.01700
C3182       C  0.51367904  0.50961577  0.95438559    -0.10800
C3183       C  0.48478759  0.50955825  0.01450370     0.05700
H3184       H  0.52139451  0.52189333  0.02989915     0.07600
H3185       H  0.54774427  0.52512549  0.00308861     0.11100
H3186       H  0.51137364  0.50612987  0.93336766     0.11300
H3187       H  0.48455433  0.50244975  0.96080284     0.07600
C3188       C  0.47186236  0.51491819  0.00466797    -0.11500
C3189       C  0.45646872  0.51243058  0.02022323    -0.10800
C3190       C  0.45363633  0.50454932  0.04603215    -0.01700
C3191       C  0.46691830  0.49979644  0.05631616    -0.11900
C3192       C  0.48231486  0.50220807  0.04064917    -0.10300
H3193       H  0.47361761  0.52100787  0.98488103     0.07600
H3194       H  0.44652147  0.51633042  0.01176631     0.11300
H3195       H  0.46496698  0.49346646  0.07598112     0.11100
H3196       H  0.49195613  0.49777789  0.04871980     0.07600
C3197       C  0.41110392  0.54348287  0.66378299    -0.11500
C3198       C  0.40681793  0.52444640  0.66022044     0.05700
C3199       C  0.42065832  0.52106253  0.64850947    -0.10300
C3200       C  0.43855064  0.53642671  0.64087475    -0.11900
C3201       C  0.44286767  0.55554119  0.64429227    -0.01700
C3202       C  0.42880497  0.55883521  0.65563272    -0.10800
C3203       C  0.38827633  0.50829221  0.66989875     0.05700
H3204       H  0.41775492  0.50652148  0.64577734     0.07600
H3205       H  0.44896831  0.53332585  0.63210480     0.11100
H3206       H  0.43158572  0.57331432  0.65859978     0.11300
H3207       H  0.40067594  0.54645844  0.67283551     0.07600
C3208       C  0.38343987  0.50723662  0.69693122    -0.11500
C3209       C  0.36586765  0.49253926  0.70636170    -0.10800
C3210       C  0.35235447  0.47860434  0.68894131    -0.01700
C3211       C  0.35730295  0.47953499  0.66180831    -0.11900
C3212       C  0.37519072  0.49413550  0.65244341    -0.10300
H3213       H  0.39331953  0.51786479  0.71081976     0.07600
H3214       H  0.36273035  0.49241249  0.72738498     0.11300
H3215       H  0.34735235  0.46906222  0.64784320     0.11100
H3216       H  0.37863758  0.49466147  0.63146730     0.07600
C3217       C  0.57156946  0.73872609  0.65152583    -0.11500
C3218       C  0.56448053  0.74016920  0.67648888     0.05700
C3219       C  0.55515577  0.72360442  0.69256379    -0.10300
C3220       C  0.55233393  0.70589480  0.68341365    -0.11900
C3221       C  0.55855286  0.70431633  0.65783785    -0.01700
C3222       C  0.56855517  0.72105607  0.64228066    -0.10800
C3223       C  0.56580731  0.75860570  0.68478612     0.05700
H3224       H  0.54971041  0.72427676  0.71203151     0.07600
H3225       H  0.54446237  0.69328651  0.69579841     0.11100
H3226       H  0.57355876  0.72038895  0.62247388     0.11300
H3227       H  0.57867855  0.75110779  0.63853758     0.07600
C3228       C  0.58248841  0.77628469  0.67994206    -0.11500
C3229       C  0.58329338  0.79359662  0.68643666    -0.10800
C3230       C  0.56736615  0.79371538  0.69772539    -0.01700
C3231       C  0.55070553  0.77601914  0.70258841    -0.11900
C3232       C  0.54997605  0.75871903  0.69633115    -0.10300
H3233       H  0.59497987  0.77672676  0.67120848     0.07600
H3234       H  0.59639493  0.80690706  0.68246657     0.11300
H3235       H  0.53818993  0.77549980  0.71136373     0.11100
H3236       H  0.53681575  0.74539943  0.69996556     0.07600
C3237       C  0.49955429  0.48966091  0.50115212    -0.11500
C3238       C  0.49321392  0.50194839  0.49173607     0.05700
C3239       C  0.48494249  0.49875620  0.46614196    -0.10300
C3240       C  0.48221794  0.48303780  0.45092931    -0.11900
C3241       C  0.48757492  0.47015639  0.46114416    -0.01700
C3242       C  0.49670339  0.47393033  0.48610373    -0.10800
C3243       C  0.49489992  0.51775789  0.50882399     0.05700
H3244       H  0.47985951  0.50794184  0.45829702     0.07600
H3245       H  0.47511812  0.48047490  0.43179172     0.11100
H3246       H  0.50128571  0.46443423  0.49433792     0.11300
H3247       H  0.50651443  0.49205096  0.52036640     0.07600
C3248       C  0.49182682  0.51527165  0.53660843    -0.11500
C3249       C  0.49370082  0.53031825  0.55267298    -0.10800
C3250       C  0.49847361  0.54805188  0.54118122    -0.01700
C3251       C  0.50123755  0.55036403  0.51336639    -0.11900
C3252       C  0.49958295  0.53547952  0.49745464    -0.10300
H3253       H  0.48783762  0.50164021  0.54592439     0.07600
H3254       H  0.49138362  0.52807320  0.57397514     0.11300
H3255       H  0.50515262  0.56390379  0.50380006     0.11100
H3256       H  0.50234555  0.53800547  0.47626809     0.07600
C3257       C  0.55527981  0.58654250  0.74175545    -0.11500
C3258       C  0.54606407  0.56646760  0.74364196     0.05700
C3259       C  0.53012077  0.55544810  0.72732124    -0.10300
C3260       C  0.52414361  0.56433466  0.70856527    -0.11900
C3261       C  0.53375332  0.58446503  0.70608813    -0.01700
C3262       C  0.54911817  0.59544011  0.72337712    -0.10800
C3263       C  0.55351654  0.55722913  0.76214187     0.05700
H3264       H  0.52273354  0.53995084  0.72840378     0.07600
H3265       H  0.51225659  0.55541082  0.69558152     0.11100
H3266       H  0.55691888  0.61092657  0.72198208     0.11300
H3267       H  0.56744911  0.59537230  0.75435873     0.07600
C3268       C  0.57306426  0.56289918  0.76205107    -0.11500
C3269       C  0.58052177  0.55535558  0.78067723    -0.10800
C3270       C  0.56864675  0.54211140  0.80015363    -0.01700
C3271       C  0.54891297  0.53592806  0.79955062    -0.11900
C3272       C  0.54142232  0.54329016  0.78063457    -0.10300
H3273       H  0.58265813  0.57345582  0.74777766     0.07600
H3274       H  0.59576483  0.56056037  0.78051366     0.11300
H3275       H  0.53930763  0.52582921  0.81425264     0.11100
H3276       H  0.52630265  0.53867553  0.78115254     0.07600
C3277       C  0.54425150  0.68475251  0.45706953    -0.11500
C3278       C  0.53091200  0.67235611  0.43811624     0.05700
C3279       C  0.51566197  0.65479310  0.44668824    -0.10300
C3280       C  0.51412690  0.64936864  0.47337727    -0.11900
C3281       C  0.52789429  0.66129417  0.49223870    -0.01700
C3282       C  0.54278883  0.67924903  0.48393494    -0.10800
C3283       C  0.53319797  0.67742426  0.40935602     0.05700
H3284       H  0.50500445  0.64513780  0.43265458     0.07600
H3285       H  0.50231230  0.63549754  0.47910103     0.11100
H3286       H  0.55368034  0.68865557  0.49789466     0.11300
H3287       H  0.55622549  0.69838275  0.45090854     0.07600
C3288       C  0.53803271  0.69594697  0.40132192    -0.11500
C3289       C  0.54148551  0.70118970  0.37450895    -0.10800
C3290       C  0.54034096  0.68807927  0.35492761    -0.01700
C3291       C  0.53475618  0.66927907  0.36282436    -0.11900
C3292       C  0.53115258  0.66398254  0.38980849    -0.10300
H3293       H  0.53935500  0.70646770  0.41585775     0.07600
H3294       H  0.54557313  0.71579581  0.36926612     0.11300
H3295       H  0.53387297  0.65890926  0.34836671     0.11100
H3296       H  0.52748859  0.64957579  0.39553351     0.07600
C3297       C  0.49956309  0.62448798  0.14987359    -0.11500
C3298       C  0.48942452  0.60852565  0.16670587     0.05700
C3299       C  0.49471441  0.60997038  0.19360237    -0.10300
C3300       C  0.50949888  0.62708356  0.20373445    -0.11900
C3301       C  0.51954852  0.64325366  0.18721005    -0.01700
C3302       C  0.51461449  0.64169257  0.15999565    -0.10800
C3303       C  0.47328941  0.59027080  0.15671784     0.05700
H3304       H  0.48707664  0.59791174  0.20700748     0.07600
H3305       H  0.51286951  0.62767675  0.22474659     0.11100
H3306       H  0.52202432  0.65386691  0.14672120     0.11300
H3307       H  0.49583549  0.62362211  0.12895950     0.07600
C3308       C  0.45801611  0.58988621  0.14269292    -0.11500
C3309       C  0.44229530  0.57238369  0.13481612    -0.10800
C3310       C  0.44172610  0.55497931  0.14049210    -0.01700
C3311       C  0.45710726  0.55550962  0.15448906    -0.11900
C3312       C  0.47262475  0.57291402  0.16258570    -0.10300
H3313       H  0.45808620  0.60309175  0.13831254     0.07600
H3314       H  0.43067810  0.57249390  0.12413716     0.11300
H3315       H  0.45715603  0.54243028  0.15935575     0.11100
H3316       H  0.48420610  0.57283423  0.17342294     0.07600
C3317       C  0.55281251  0.85044595  0.18625247    -0.11500
C3318       C  0.55119713  0.83543349  0.17018641     0.05700
C3319       C  0.54666208  0.83506290  0.14311244    -0.10300
C3320       C  0.54357939  0.84922646  0.13227964    -0.11900
C3321       C  0.54482382  0.86413002  0.14827212    -0.01700
C3322       C  0.54949577  0.86460801  0.17543308    -0.10800
C3323       C  0.55379830  0.81983961  0.18132415     0.05700
H3324       H  0.54554011  0.82377093  0.13023446     0.07600
H3325       H  0.53993505  0.84828901  0.11133342     0.11100
H3326       H  0.55054028  0.87586654  0.18829771     0.11300
H3327       H  0.55621494  0.85096934  0.20724848     0.07600
C3328       C  0.56976675  0.82387739  0.19712289    -0.11500
C3329       C  0.57272740  0.80902394  0.20583119    -0.10800
C3330       C  0.55954494  0.78990471  0.19933901    -0.01700
C3331       C  0.54334783  0.78588231  0.18413428    -0.11900
C3332       C  0.54058198  0.80069711  0.17506921    -0.10300
H3333       H  0.58017498  0.83852997  0.20213696     0.07600
H3334       H  0.58519961  0.81244339  0.21782934     0.11300
H3335       H  0.53294342  0.77126596  0.17890406     0.11100
H3336       H  0.52806320  0.79719800  0.16312856     0.07600
C3337       C  0.64371360  0.81107053  0.34257255    -0.11500
C3338       C  0.65522938  0.82900451  0.33063001     0.05700
C3339       C  0.65294632  0.83120861  0.30317545    -0.10300
C3340       C  0.63939273  0.81578009  0.28807474    -0.11900
C3341       C  0.62770032  0.79796734  0.30025790    -0.01700
C3342       C  0.63007034  0.79581582  0.32765583    -0.10800
C3343       C  0.66947693  0.84530983  0.34683795     0.05700
H3344       H  0.66140571  0.84493774  0.29341493     0.07600
H3345       H  0.63785576  0.81786323  0.26705906     0.11100
H3346       H  0.62149663  0.78219470  0.33766526     0.11300
H3347       H  0.64536221  0.80870596  0.36344178     0.07600
C3348       C  0.66555786  0.84767741  0.37352490    -0.11500
C3349       C  0.67870020  0.86352129  0.38831257    -0.10800
C3350       C  0.69591482  0.87738202  0.37659872    -0.01700
C3351       C  0.70008256  0.87462919  0.35026041    -0.11900
C3352       C  0.68706896  0.85877853  0.33562171    -0.10300
H3353       H  0.65205493  0.83765116  0.38274363     0.07600
H3354       H  0.67505097  0.86528745  0.40849487     0.11300
H3355       H  0.71331840  0.88494093  0.34066262     0.11100
H3356       H  0.69079097  0.85714462  0.31543187     0.07600
C3357       C  0.77171895  0.95321507  0.98620575    -0.11500
C3358       C  0.75336493  0.93682915  0.98835103     0.05700
C3359       C  0.73859827  0.93898476  0.99986945    -0.10300
C3360       C  0.74229178  0.95672447  0.00991831    -0.11900
C3361       C  0.76064043  0.97284660  0.00786399    -0.01700
C3362       C  0.77523158  0.97103789  0.99556241    -0.10800
C3363       C  0.74996391  0.91756202  0.97970128     0.05700
H3364       H  0.72418427  0.92695691  0.00138685     0.07600
H3365       H  0.73083484  0.95786598  0.01940329     0.11100
H3366       H  0.78957385  0.98326188  0.99424208     0.11300
H3367       H  0.78363896  0.95224356  0.97814466     0.07600
C3368       C  0.76078368  0.91590752  0.95888334    -0.11500
C3369       C  0.75873626  0.89812272  0.95223177    -0.10800
C3370       C  0.74545145  0.88138770  0.96567334    -0.01700
C3371       C  0.73406774  0.88278666  0.98573059    -0.11900
C3372       C  0.73644237  0.90065902  0.99287653    -0.10300
H3373       H  0.77092029  0.92835678  0.94763121     0.07600
H3374       H  0.76747238  0.89743399  0.93634547     0.11300
H3375       H  0.72374232  0.87012248  0.99648510     0.11100
H3376       H  0.72802926  0.90120023  0.00929648     0.07600
C3377       C  0.70373887  0.68520373  0.89971116    -0.11500
C3378       C  0.71191357  0.67841065  0.91836940     0.05700
C3379       C  0.72843681  0.69157272  0.93220224    -0.10300
C3380       C  0.73578387  0.71136654  0.92882944    -0.11900
C3381       C  0.72653401  0.71805227  0.91177108    -0.01700
C3382       C  0.71095269  0.70481789  0.89647242    -0.10800
C3383       C  0.70097151  0.65800215  0.92619930     0.05700
H3384       H  0.73475641  0.68656821  0.94695261     0.07600
H3385       H  0.74753827  0.72131770  0.94127100     0.11100
H3386       H  0.70345379  0.70964235  0.88347455     0.11300
H3387       H  0.69090665  0.67526186  0.88900481     0.07600
C3388       C  0.68338210  0.65143215  0.93912579    -0.11500
C3389       C  0.67061629  0.63187750  0.94175658    -0.10800
C3390       C  0.67507118  0.61839033  0.93134525    -0.01700
C3391       C  0.69340186  0.62490824  0.92048921    -0.11900
C3392       C  0.70630354  0.64469090  0.91784486    -0.10300
H3393       H  0.67904913  0.66149051  0.94577080     0.07600
H3394       H  0.65667643  0.62728958  0.95043388     0.11300
H3395       H  0.69714611  0.61482198  0.91217311     0.11100
H3396       H  0.71982836  0.64955039  0.90774009     0.07600
C3397       C  0.67897541  0.77591720  0.08014860    -0.11500
C3398       C  0.66571557  0.78242254  0.08078640     0.05700
C3399       C  0.66765659  0.79637335  0.06222045    -0.10300
C3400       C  0.68190052  0.80294591  0.04263374    -0.11900
C3401       C  0.69465789  0.79583554  0.04124656    -0.01700
C3402       C  0.69331405  0.78257732  0.06064258    -0.10800
C3403       C  0.64943145  0.77407684  0.09994605     0.05700
H3404       H  0.65762960  0.80160248  0.06208376     0.07600
H3405       H  0.68248129  0.81312785  0.02798009     0.11100
H3406       H  0.70279099  0.77668831  0.06006024     0.11300
H3407       H  0.67804690  0.76540008  0.09447733     0.07600
C3408       C  0.63944339  0.75425965  0.10506373    -0.11500
C3409       C  0.62424945  0.74631784  0.12322983    -0.10800
C3410       C  0.61882650  0.75803201  0.13698611    -0.01700
C3411       C  0.62854084  0.77780512  0.13150904    -0.11900
C3412       C  0.64358027  0.78572104  0.11301902    -0.10300
H3413       H  0.64339054  0.74486006  0.09500202     0.07600
H3414       H  0.61724941  0.73108358  0.12730987     0.11300
H3415       H  0.62476317  0.78720503  0.14194663     0.11100
H3416       H  0.65101145  0.80104125  0.10955553     0.07600
C3417       C  0.66443274  0.81909822  0.83286255    -0.11500
C3418       C  0.65623279  0.82911895  0.84445744     0.05700
C3419       C  0.65985547  0.83434033  0.87150103    -0.10300
C3420       C  0.67190369  0.83006596  0.88647880    -0.11900
C3421       C  0.68051803  0.82048332  0.87464669    -0.01700
C3422       C  0.67643471  0.81484353  0.84775055    -0.10800
C3423       C  0.64430352  0.83447733  0.82816715     0.05700
H3424       H  0.65379496  0.84220897  0.88085427     0.07600
H3425       H  0.67484678  0.83467524  0.90706192     0.11100
H3426       H  0.68264151  0.80722434  0.83804386     0.11300
H3427       H  0.66159792  0.81459249  0.81221842     0.07600
C3428       C  0.65005660  0.84193673  0.80226521    -0.11500
C3429       C  0.63890970  0.84720299  0.78697517    -0.10800
C3430       C  0.62177052  0.84505229  0.79729294    -0.01700
C3431       C  0.61610211  0.83765491  0.82328612    -0.11900
C3432       C  0.62721892  0.83238813  0.83850396    -0.10300
H3433       H  0.66334932  0.84397532  0.79399378     0.07600
H3434       H  0.64379577  0.85311339  0.76721830     0.11300
H3435       H  0.60296343  0.83579486  0.83189613     0.11100
H3436       H  0.62236366  0.82650839  0.85828767     0.07600
C3437       C  0.79474774  0.78830786  0.73037228    -0.11500
C3438       C  0.77940169  0.79054368  0.73869693     0.05700
C3439       C  0.76671247  0.79047271  0.71922435    -0.10300
C3440       C  0.76901417  0.78766855  0.69215246    -0.11900
C3441       C  0.78400806  0.78478543  0.68401103    -0.01700
C3442       C  0.79705302  0.78553546  0.70343288    -0.10800
C3443       C  0.77651798  0.79285935  0.76752821     0.05700
H3444       H  0.75459519  0.79195794  0.72503554     0.07600
H3445       H  0.75859758  0.78689139  0.67783142     0.11100
H3446       H  0.80888314  0.78348303  0.69787723     0.11300
H3447       H  0.80495440  0.78863137  0.74470899     0.07600
C3448       C  0.77901423  0.78187947  0.78746554    -0.11500
C3449       C  0.77471216  0.78317416  0.81431058    -0.10800
C3450       C  0.76784514  0.79546352  0.82161714    -0.01700
C3451       C  0.76638888  0.80711547  0.80178568    -0.11900
C3452       C  0.77064359  0.80582150  0.77521546    -0.10300
H3453       H  0.78355984  0.77174619  0.78217147     0.07600
H3454       H  0.77599652  0.77403996  0.82906952     0.11300
H3455       H  0.76150626  0.81705814  0.80667527     0.11100
H3456       H  0.76910821  0.81486754  0.76056679     0.07600
C3457       C  0.76707384  0.82798079  0.47725396    -0.11500
C3458       C  0.76013031  0.83743227  0.49348548     0.05700
C3459       C  0.75519951  0.83131181  0.52003388    -0.10300
C3460       C  0.75759998  0.81655948  0.53033571    -0.11900
C3461       C  0.76502450  0.80742074  0.51445305    -0.01700
C3462       C  0.76944650  0.81307561  0.48760861    -0.10800
C3463       C  0.75858098  0.85404792  0.48342009     0.05700
H3464       H  0.75005297  0.83836528  0.53324653     0.07600
H3465       H  0.75394562  0.81257055  0.55106237     0.11100
H3466       H  0.77521488  0.80636204  0.47483571     0.11300
H3467       H  0.77077611  0.83218793  0.45660640     0.07600
C3468       C  0.77284314  0.86808724  0.46692527    -0.11500
C3469       C  0.77197756  0.88437466  0.45910670    -0.10800
C3470       C  0.75675557  0.88692584  0.46747014    -0.01700
C3471       C  0.74236514  0.87270922  0.48361494    -0.11900
C3472       C  0.74326871  0.85653405  0.49147048    -0.10300
H3473       H  0.78494947  0.86673856  0.46061956     0.07600
H3474       H  0.78322964  0.89496238  0.44653119     0.11300
H3475       H  0.73038443  0.87411535  0.49041857     0.11100
H3476       H  0.73189799  0.84592259  0.50387539     0.07600
C3477       C  0.67507379  0.72791622  0.60611612    -0.11500
C3478       C  0.66771322  0.73006673  0.58177242     0.05700
C3479       C  0.68045002  0.74088361  0.56128360    -0.10300
C3480       C  0.70020694  0.74855386  0.56460376    -0.11900
C3481       C  0.70742285  0.74516796  0.58823711    -0.01700
C3482       C  0.69476901  0.73520738  0.60920047    -0.10800
C3483       C  0.64691749  0.71842685  0.57658235     0.05700
H3484       H  0.67502365  0.74249089  0.54225917     0.07600
H3485       H  0.70969210  0.75575833  0.54793949     0.11100
H3486       H  0.70000172  0.73198718  0.62726994     0.11300
H3487       H  0.66545794  0.71933006  0.62198110     0.07600
C3488       C  0.64019078  0.70287259  0.55897402    -0.11500
C3489       C  0.62066380  0.68939228  0.55770417    -0.10800
C3490       C  0.60746568  0.69151536  0.57349802    -0.01700
C3491       C  0.61404078  0.70786512  0.58960781    -0.11900
C3492       C  0.63368581  0.72107217  0.59147967    -0.10300
H3493       H  0.65019063  0.70048878  0.54750644     0.07600
H3494       H  0.61594261  0.67685056  0.54526101     0.11300
H3495       H  0.60415538  0.70966376  0.60223389     0.11100
H3496       H  0.63862699  0.73291081  0.60530995     0.07600
C3497       C  0.63634231  0.52966867  0.06349929    -0.11500
C3498       C  0.65440682  0.54448696  0.07104284     0.05700
C3499       C  0.66739965  0.55617544  0.05117040    -0.10300
C3500       C  0.66191555  0.55377985  0.02430891    -0.11900
C3501       C  0.64336677  0.53966072  0.01702936    -0.01700
C3502       C  0.63091817  0.52721562  0.03681576    -0.10800
C3503       C  0.65944936  0.54803792  0.09962653     0.05700
H3504       H  0.68148164  0.56771341  0.05653813     0.07600
H3505       H  0.67177625  0.56355944  0.00953201     0.11100
H3506       H  0.61661375  0.51592980  0.03181236     0.11300
H3507       H  0.62627268  0.52017611  0.07832615     0.07600
C3508       C  0.64645049  0.54802755  0.11843699    -0.11500
C3509       C  0.65180941  0.55258504  0.14520394    -0.10800
C3510       C  0.67022840  0.55717269  0.15345862    -0.01700
C3511       C  0.68281519  0.55631838  0.13471107    -0.11900
C3512       C  0.67752620  0.55190686  0.10815653    -0.10300
H3513       H  0.63239951  0.54515643  0.11224083     0.07600
H3514       H  0.64187912  0.55323559  0.15910805     0.11300
H3515       H  0.69706547  0.55951538  0.14040499     0.11100
H3516       H  0.68765186  0.55165133  0.09421089     0.07600
C3517       C  0.55772014  0.49064830  0.34876672    -0.11500
C3518       C  0.57511520  0.49082274  0.35164352     0.05700
C3519       C  0.57497903  0.47498340  0.36376328    -0.10300
C3520       C  0.55776676  0.45922029  0.37256215    -0.11900
C3521       C  0.54031809  0.45902827  0.36962735    -0.01700
C3522       C  0.54058925  0.47502781  0.35771284    -0.10800
C3523       C  0.59320332  0.50723731  0.34127043     0.05700
H3524       H  0.58815698  0.47463320  0.36594841     0.07600
H3525       H  0.55813314  0.44717836  0.38157033     0.11100
H3526       H  0.52750276  0.47549824  0.35511682     0.11300
H3527       H  0.55737915  0.50269308  0.33970175     0.07600
C3528       C  0.59369386  0.51479527  0.31579957    -0.11500
C3529       C  0.61081011  0.52960543  0.30536679    -0.10800
C3530       C  0.62785853  0.53743129  0.32026889    -0.01700
C3531       C  0.62726173  0.53028921  0.34609286    -0.11900
C3532       C  0.61013639  0.51524987  0.35640379    -0.10300
H3533       H  0.58092309  0.50885203  0.30359074     0.07600
H3534       H  0.61073762  0.53474701  0.28539671     0.11300
H3535       H  0.64015083  0.53589793  0.35799569     0.11100
H3536       H  0.61012673  0.50982708  0.37619816     0.07600
C3537       C  0.77261620  0.65872875  0.39281201    -0.11500
C3538       C  0.76065485  0.66239111  0.40914244     0.05700
C3539       C  0.74073330  0.65052018  0.40698246    -0.10300
C3540       C  0.73288293  0.63583144  0.38813770    -0.11900
C3541       C  0.74477012  0.63279828  0.37074651    -0.01700
C3542       C  0.76475181  0.64417441  0.37363787    -0.10800
C3543       C  0.76872907  0.67879555  0.42794646     0.05700
H3544       H  0.73118468  0.65280923  0.41964300     0.07600
H3545       H  0.71745640  0.62747679  0.38632882     0.11100
H3546       H  0.77430464  0.64223433  0.36050214     0.11300
H3547       H  0.78802523  0.66763830  0.39410155     0.07600
C3548       C  0.78405038  0.68232308  0.44480481    -0.11500
C3549       C  0.79046105  0.69680255  0.46403264    -0.10800
C3550       C  0.78189203  0.70826061  0.46647374    -0.01700
C3551       C  0.76721075  0.70531802  0.44869495    -0.11900
C3552       C  0.76064187  0.69068677  0.42974898    -0.10300
H3553       H  0.79053598  0.67337535  0.44385428     0.07600
H3554       H  0.80178149  0.69868626  0.47748676     0.11300
H3555       H  0.76018629  0.71374746  0.45020580     0.11100
H3556       H  0.74899744  0.68846315  0.41671820     0.07600
C3557       C  0.60773314  0.60029603  0.26689488    -0.11500
C3558       C  0.61037975  0.61710742  0.25443702     0.05700
C3559       C  0.62569368  0.62681575  0.23663400    -0.10300
C3560       C  0.63889182  0.62064928  0.23259803    -0.11900
C3561       C  0.63695720  0.60444990  0.24600731    -0.01700
C3562       C  0.62086290  0.59388353  0.26248649    -0.10800
C3563       C  0.59944036  0.62657173  0.26248936     0.05700
H3564       H  0.62807356  0.63989449  0.22703530     0.07600
H3565       H  0.65120564  0.62912286  0.21997122     0.11100
H3566       H  0.61923203  0.58154334  0.27344166     0.11300
H3567       H  0.59614765  0.59274516  0.28099599     0.07600
C3568       C  0.58316155  0.62361503  0.24828210    -0.11500
C3569       C  0.57609462  0.63632594  0.25130649    -0.10800
C3570       C  0.58550816  0.65235292  0.26813083    -0.01700
C3571       C  0.60092457  0.65441005  0.28365044    -0.11900
C3572       C  0.60772744  0.64158628  0.28098172    -0.10300
H3573       H  0.57675847  0.61230817  0.23358185     0.07600
H3574       H  0.56438607  0.63459926  0.23879315     0.11300
H3575       H  0.60850330  0.66669153  0.29661358     0.11100
H3576       H  0.62042621  0.64425617  0.29187638     0.07600
C3577       C  0.80917514  0.58872333  0.30957893    -0.11500
C3578       C  0.80537520  0.57168165  0.32252532     0.05700
C3579       C  0.78623135  0.55731032  0.32648099    -0.10300
C3580       C  0.77122005  0.55984218  0.31748942    -0.11900
C3581       C  0.77499444  0.57693975  0.30472908    -0.01700
C3582       C  0.79414419  0.59139966  0.30098624    -0.10800
C3583       C  0.82126972  0.56895789  0.33227140     0.05700
H3584       H  0.78287228  0.54398657  0.33626830     0.07600
H3585       H  0.75662804  0.54847879  0.32078189     0.11100
H3586       H  0.79750904  0.60470546  0.29113708     0.11300
H3587       H  0.82378418  0.60010215  0.30648751     0.07600
C3588       C  0.83729360  0.57363979  0.31610973    -0.11500
C3589       C  0.85206678  0.57072205  0.32534456    -0.10800
C3590       C  0.85127288  0.56347155  0.35113476    -0.01700
C3591       C  0.83532776  0.55899381  0.36732000    -0.11900
C3592       C  0.82044707  0.56154960  0.35793065    -0.10300
H3593       H  0.83822607  0.57925254  0.29616854     0.07600
H3594       H  0.86417160  0.57428806  0.31244800     0.11300
H3595       H  0.83420086  0.55321206  0.38719224     0.11100
H3596       H  0.80836263  0.55793854  0.37089560     0.07600
C3597       C  0.18629889  0.75690550  0.19505072    -0.11500
C3598       C  0.17230168  0.75638128  0.17779563     0.05700
C3599       C  0.17400458  0.77381970  0.16921878    -0.10300
C3600       C  0.18931297  0.79133047  0.17774564    -0.11900
C3601       C  0.20340745  0.79180501  0.19473700    -0.01700
C3602       C  0.20175205  0.77441192  0.20325458    -0.10800
C3603       C  0.15654284  0.73773580  0.16780633     0.05700
H3604       H  0.16342240  0.77392323  0.15602537     0.07600
H3605       H  0.19025900  0.80451808  0.17077982     0.11100
H3606       H  0.21234374  0.77434238  0.21646829     0.11300
H3607       H  0.18555428  0.74375650  0.20171795     0.07600
C3608       C  0.15121663  0.73572355  0.14083390    -0.11500
C3609       C  0.13738240  0.71800141  0.13080304    -0.10800
C3610       C  0.12835373  0.70175488  0.14747336    -0.01700
C3611       C  0.13328823  0.70383096  0.17466011    -0.11900
C3612       C  0.14728519  0.72162804  0.18469509    -0.10300
H3613       H  0.15817578  0.74774803  0.12721732     0.07600
H3614       H  0.13390345  0.71703342  0.10978748     0.11300
H3615       H  0.12660046  0.69165433  0.18806618     0.11100
H3616       H  0.15092210  0.72278515  0.20566500     0.07600
C3617       C  0.99913484  0.55975421  0.21847032    -0.11500
C3618       C  0.99553895  0.57189238  0.23443406     0.05700
C3619       C  0.00719871  0.59182510  0.23153487    -0.10300
C3620       C  0.02203866  0.59947385  0.21277811    -0.11900
C3621       C  0.02540304  0.58732743  0.19636718    -0.01700
C3622       C  0.01382728  0.56737180  0.19956435    -0.10800
C3623       C  0.97963643  0.56374895  0.25400315     0.05700
H3624       H  0.00485263  0.60149317  0.24383917     0.07600
H3625       H  0.03058632  0.61489338  0.21073114     0.11100
H3626       H  0.01596366  0.55758324  0.18723150     0.11300
H3627       H  0.99028081  0.54433806  0.22018957     0.07600
C3628       C  0.96723483  0.57119343  0.25627099    -0.11500
C3629       C  0.95258732  0.56385766  0.27529290    -0.10800
C3630       C  0.95019346  0.54905356  0.29260377    -0.01700
C3631       C  0.96231704  0.54129443  0.28979632    -0.11900
C3632       C  0.97684150  0.54853381  0.27066927    -0.10300
H3633       H  0.96893737  0.58275793  0.24338827     0.07600
H3634       H  0.94357045  0.57022554  0.27701001     0.11300
H3635       H  0.96089840  0.52990557  0.30281665     0.11100
H3636       H  0.98625568  0.54259545  0.26942386     0.07600
C3637       C  0.85594670  0.78786347  0.02971776    -0.11500
C3638       C  0.83922993  0.77203124  0.01983974     0.05700
C3639       C  0.83850078  0.75430805  0.01781166    -0.10300
C3640       C  0.85426138  0.75249865  0.02491951    -0.11900
C3641       C  0.87126675  0.76842751  0.03405471    -0.01700
C3642       C  0.87183991  0.78610417  0.03667614    -0.10800
C3643       C  0.82295956  0.77409493  0.01013996     0.05700
H3644       H  0.82571447  0.74182771  0.01052979     0.07600
H3645       H  0.85315194  0.73860118  0.02289949     0.11100
H3646       H  0.88463878  0.79864200  0.04377746     0.11300
H3647       H  0.85691577  0.80172479  0.03128663     0.07600
C3648       C  0.81564006  0.78368311  0.02524424    -0.11500
C3649       C  0.80047159  0.78576518  0.01543555    -0.10800
C3650       C  0.79261361  0.77857971  0.99014520    -0.01700
C3651       C  0.79990471  0.76885684  0.97528176    -0.11900
C3652       C  0.81480469  0.76658035  0.98519215    -0.10300
H3653       H  0.82164140  0.78952552  0.04461317     0.07600
H3654       H  0.79527026  0.79344152  0.02728084     0.11300
H3655       H  0.79421704  0.76313944  0.95573750     0.11100
H3656       H  0.82028345  0.75930070  0.97301198     0.07600
C3657       C  0.07416922  0.86935506  0.96652859    -0.11500
C3658       C  0.07337070  0.85321416  0.97854729     0.05700
C3659       C  0.09047935  0.85291912  0.98238176    -0.10300
C3660       C  0.10807378  0.86855082  0.97472228    -0.11900
C3661       C  0.10899701  0.88495714  0.96329684    -0.01700
C3662       C  0.09178384  0.88510107  0.95914996    -0.10800
C3663       C  0.05497747  0.83738979  0.98895811     0.05700
H3664       H  0.09023229  0.84060612  0.99154029     0.07600
H3665       H  0.12098381  0.86789211  0.97817952     0.11100
H3666       H  0.09190265  0.89744707  0.95033771     0.11300
H3667       H  0.06121507  0.87003848  0.96363310     0.07600
C3668       C  0.05396275  0.83102068  0.01529933    -0.11500
C3669       C  0.03656913  0.81706802  0.02613160    -0.10800
C3670       C  0.01972093  0.80891922  0.01080408    -0.01700
C3671       C  0.02081227  0.81487177  0.98409816    -0.11900
C3672       C  0.03825940  0.82911466  0.97335327    -0.10300
H3673       H  0.06658342  0.83726987  0.02782432     0.07600
H3674       H  0.03632068  0.81278605  0.04669411     0.11300
H3675       H  0.00811966  0.80887958  0.97172726     0.11100
H3676       H  0.03870233  0.83372203  0.95291392     0.07600
C3677       C  0.81673148  0.66523484  0.19933472    -0.11500
C3678       C  0.81435754  0.66787565  0.17206123     0.05700
C3679       C  0.79602009  0.65782717  0.16091284    -0.10300
C3680       C  0.78048289  0.64522978  0.17642743    -0.11900
C3681       C  0.78277953  0.64246215  0.20365039    -0.01700
C3682       C  0.80104457  0.65271023  0.21504480    -0.10800
C3683       C  0.83085145  0.68113064  0.15524561     0.05700
H3684       H  0.79358136  0.65985537  0.14021652     0.07600
H3685       H  0.76655274  0.63777740  0.16700359     0.11100
H3686       H  0.80324621  0.65082904  0.23589678     0.11300
H3687       H  0.83075653  0.67261238  0.20846257     0.07600
C3688       C  0.84540951  0.69830069  0.16598346    -0.11500
C3689       C  0.86114082  0.71061467  0.15054230    -0.10800
C3690       C  0.86269705  0.70615741  0.12385860    -0.01700
C3691       C  0.84791810  0.68924308  0.11277266    -0.11900
C3692       C  0.83215959  0.67680097  0.12836616    -0.10300
H3693       H  0.84464005  0.70230725  0.18634972     0.07600
H3694       H  0.87220770  0.72360623  0.15972839     0.11300
H3695       H  0.84876542  0.68537188  0.09234708     0.11100
H3696       H  0.82125144  0.66356396  0.11954516     0.07600
C3697       C  0.01820524  0.71504277  0.09698251    -0.11500
C3698       C  0.03471492  0.72520924  0.08135906     0.05700
C3699       C  0.03932609  0.74330801  0.07126572    -0.10300
C3700       C  0.02668679  0.75038617  0.07506006    -0.11900
C3701       C  0.00933281  0.73935335  0.08888547    -0.01700
C3702       C  0.00566526  0.72200870  0.10068861    -0.10800
C3703       C  0.04499818  0.71521333  0.07278039     0.05700
H3704       H  0.05195868  0.75130366  0.05901470     0.07600
H3705       H  0.02973363  0.76367560  0.06544942     0.11100
H3706       H  0.99243876  0.71321545  0.11145035     0.11300
H3707       H  0.01442295  0.70107886  0.10498371     0.07600
C3708       C  0.06296788  0.71989807  0.08325311    -0.11500
C3709       C  0.07018841  0.70735066  0.07978099    -0.10800
C3710       C  0.05939299  0.68994621  0.06603426    -0.01700
C3711       C  0.04227753  0.68629787  0.05360722    -0.11900
C3712       C  0.03517622  0.69878243  0.05696180    -0.10300
H3713       H  0.07071217  0.73247422  0.09563438     0.07600
H3714       H  0.08333669  0.71044575  0.08975264     0.11300
H3715       H  0.03369329  0.67308110  0.04278322     0.11100
H3716       H  0.02132138  0.69496400  0.04863944     0.07600
C3717       C  0.87638651  0.57589650  0.60367901    -0.11500
C3718       C  0.87745947  0.55963118  0.59665788     0.05700
C3719       C  0.87576312  0.54662064  0.61675653    -0.10300
C3720       C  0.87277011  0.54971392  0.64335159    -0.11900
C3721       C  0.87128573  0.56578197  0.65017329    -0.01700
C3722       C  0.87329093  0.57891573  0.63012443    -0.10800
C3723       C  0.88070874  0.55651116  0.56849123     0.05700
H3724       H  0.87642068  0.53388861  0.61181284     0.07600
H3725       H  0.87109688  0.53932188  0.65841639     0.11100
H3726       H  0.87244528  0.59157675  0.63491568     0.11300
H3727       H  0.87806318  0.58635481  0.58871763     0.07600
C3728       C  0.87091057  0.55966686  0.54761435    -0.11500
C3729       C  0.87447271  0.55721474  0.52098153    -0.10800
C3730       C  0.88788080  0.55154473  0.51481322    -0.01700
C3731       C  0.89755239  0.54830042  0.53581686    -0.11900
C3732       C  0.89401623  0.55076431  0.56229065    -0.10300
H3733       H  0.86038445  0.56388789  0.55192730     0.07600
H3734       H  0.86663130  0.55956142  0.50529251     0.11300
H3735       H  0.90806632  0.54400223  0.53182717     0.11100
H3736       H  0.90195978  0.54849867  0.57792204     0.07600
C3737       C  0.70266846  0.55437221  0.81550106    -0.11500
C3738       C  0.71993906  0.56532311  0.82948252     0.05700
C3739       C  0.71949770  0.57417207  0.85342656    -0.10300
C3740       C  0.70227099  0.57176294  0.86345834    -0.11900
C3741       C  0.68498996  0.56056621  0.84974499    -0.01700
C3742       C  0.68539114  0.55208791  0.82547115    -0.10800
C3743       C  0.73831278  0.56719819  0.81975106     0.05700
H3744       H  0.73240555  0.58248793  0.86496234     0.07600
H3745       H  0.70243875  0.57844968  0.88225858     0.11100
H3746       H  0.67226881  0.54319988  0.81462408     0.11300
H3747       H  0.70249320  0.54751926  0.79687552     0.07600
C3748       C  0.73888911  0.55157915  0.80818384    -0.11500
C3749       C  0.75636810  0.55317001  0.80047404    -0.10800
C3750       C  0.77370116  0.57044782  0.80406445    -0.01700
C3751       C  0.77301709  0.58610435  0.81528153    -0.11900
C3752       C  0.75562111  0.58451246  0.82295078    -0.10300
H3753       H  0.72586999  0.53796123  0.80565624     0.07600
H3754       H  0.75629462  0.54085268  0.79176039     0.11300
H3755       H  0.78598820  0.59970701  0.81823406     0.11100
H3756       H  0.75575138  0.59694960  0.83132533     0.07600
C3757       C  0.81355378  0.67075278  0.63535576    -0.11500
C3758       C  0.80915173  0.66839669  0.66279255     0.05700
C3759       C  0.80197140  0.67928608  0.67458675    -0.10300
C3760       C  0.79979132  0.69262891  0.65956394    -0.11900
C3761       C  0.80461480  0.69534175  0.63228739    -0.01700
C3762       C  0.81121574  0.68403964  0.62021009    -0.10800
C3763       C  0.81247955  0.65499908  0.67921525     0.05700
H3764       H  0.79803146  0.67751351  0.69548397     0.07600
H3765       H  0.79438066  0.70090113  0.66945090     0.11100
H3766       H  0.81505839  0.68582068  0.59927343     0.11300
H3767       H  0.81932218  0.66271915  0.62572033     0.07600
C3768       C  0.80899382  0.63745457  0.66861140    -0.11500
C3769       C  0.81318797  0.62535566  0.68341123    -0.10800
C3770       C  0.82089336  0.63045203  0.70926318    -0.01700
C3771       C  0.82372314  0.64766363  0.72031196    -0.11900
C3772       C  0.81962520  0.65985494  0.70539061    -0.10300
H3773       H  0.80311417  0.63309874  0.64876957     0.07600
H3774       H  0.81067891  0.61211446  0.67433549     0.11300
H3775       H  0.82974228  0.65204702  0.74008608     0.11100
H3776       H  0.82267481  0.67338561  0.71404889     0.07600
C3777       C  0.90739169  0.69606549  0.91992082    -0.11500
C3778       C  0.89174852  0.67782532  0.92550370     0.05700
C3779       C  0.88323768  0.67408354  0.95080009    -0.10300
C3780       C  0.89020126  0.68832437  0.97023107    -0.11900
C3781       C  0.90600296  0.70655394  0.96488043    -0.01700
C3782       C  0.91458431  0.71027640  0.93953411    -0.10800
C3783       C  0.88427654  0.66268604  0.90500269     0.05700
H3784       H  0.87108910  0.66015889  0.95545647     0.07600
H3785       H  0.88337496  0.68490708  0.98964093     0.11100
H3786       H  0.92682403  0.72413507  0.93487686     0.11300
H3787       H  0.91423707  0.69919066  0.90052725     0.07600
C3788       C  0.88024500  0.66658536  0.87931087    -0.11500
C3789       C  0.87329007  0.65237137  0.85983000    -0.10800
C3790       C  0.87049243  0.63403219  0.86553077    -0.01700
C3791       C  0.87447294  0.63010703  0.89132256    -0.11900
C3792       C  0.88113133  0.64428043  0.91098318    -0.10300
H3793       H  0.88238202  0.68062023  0.87436549     0.07600
H3794       H  0.87046460  0.65588987  0.84010052     0.11300
H3795       H  0.87242444  0.61611230  0.89628553     0.11100
H3796       H  0.88419105  0.64100391  0.93072574     0.07600
C3797       C  0.97780148  0.77998406  0.28293899    -0.11500
C3798       C  0.99112152  0.78986683  0.26237846     0.05700
C3799       C  0.00996662  0.80325817  0.26918539    -0.10300
C3800       C  0.01561646  0.80640403  0.29571202    -0.11900
C3801       C  0.00259800  0.79623897  0.31643166    -0.01700
C3802       C  0.98351353  0.78311196  0.30979858    -0.10800
C3803       C  0.98563481  0.78660711  0.23381525     0.05700
H3804       H  0.02041793  0.81145979  0.25393087     0.07600
H3805       H  0.03042688  0.81680289  0.29984334     0.11100
H3806       H  0.97315663  0.77505528  0.32522280     0.11300
H3807       H  0.96311165  0.76954005  0.27822557     0.07600
C3808       C  0.99812158  0.78610904  0.21453010    -0.11500
C3809       C  0.99316744  0.78356356  0.18745871    -0.10800
C3810       C  0.97559016  0.78136723  0.17924272    -0.01700
C3811       C  0.96327859  0.78216027  0.19857365    -0.11900
C3812       C  0.96821467  0.78469872  0.22547715    -0.10300
H3813       H  0.01159977  0.78734409  0.22045453     0.07600
H3814       H  0.00275733  0.78269074  0.17315409     0.11300
H3815       H  0.94959343  0.78058142  0.19295262     0.11100
H3816       H  0.95847599  0.78538097  0.23971502     0.07600
C3817       C  0.12242281  0.92584601  0.47091652    -0.11500
C3818       C  0.13828612  0.92573040  0.48246548     0.05700
C3819       C  0.13774105  0.90818165  0.48568085    -0.10300
C3820       C  0.12168878  0.89111900  0.47807479    -0.11900
C3821       C  0.10560395  0.89101201  0.46692784    -0.01700
C3822       C  0.10616547  0.90860819  0.46330010    -0.10800
C3823       C  0.15507899  0.94354460  0.49250781     0.05700
H3824       H  0.14981184  0.90763369  0.49416153     0.07600
H3825       H  0.12193706  0.87793314  0.48111709     0.11100
H3826       H  0.09410173  0.90905313  0.45460846     0.11300
H3827       H  0.12242650  0.93919707  0.46836912     0.07600
C3828       C  0.16349587  0.96059992  0.47750201    -0.11500
C3829       C  0.17924492  0.97726513  0.48758316    -0.10800
C3830       C  0.18661335  0.97721205  0.51302500    -0.01700
C3831       C  0.17837894  0.96003755  0.52768827    -0.11900
C3832       C  0.16287361  0.94343484  0.51754113    -0.10300
H3833       H  0.15789517  0.96102869  0.45803135     0.07600
H3834       H  0.18520527  0.99033425  0.47591249     0.11300
H3835       H  0.18371278  0.95950774  0.54732597     0.11100
H3836       H  0.15662875  0.93056788  0.52967132     0.07600
C3837       C  0.93995969  0.77971916  0.52055979    -0.11500
C3838       C  0.92297684  0.76921816  0.50585772     0.05700
C3839       C  0.92395311  0.76213897  0.48067694    -0.10300
C3840       C  0.94157615  0.76609621  0.46999439    -0.11900
C3841       C  0.95862459  0.77703833  0.48437609    -0.01700
C3842       C  0.95757825  0.78348104  0.51001323    -0.10800
C3843       C  0.90448300  0.76658047  0.51603231     0.05700
H3844       H  0.91115976  0.75414474  0.46878371     0.07600
H3845       H  0.94188551  0.76085055  0.45023274     0.11100
H3846       H  0.97044880  0.79199580  0.52155634     0.11300
H3847       H  0.93963054  0.78520288  0.54013456     0.07600
C3848       C  0.88738990  0.74896840  0.51328816    -0.11500
C3849       C  0.86992242  0.74688581  0.52195434    -0.10800
C3850       C  0.86914675  0.76244430  0.53330119    -0.01700
C3851       C  0.88630216  0.78000467  0.53610961    -0.11900
C3852       C  0.90372432  0.78201622  0.52768508    -0.10300
H3853       H  0.88755060  0.73678244  0.50451464     0.07600
H3854       H  0.85701290  0.73315635  0.51948992     0.11300
H3855       H  0.88630581  0.79229796  0.54479221     0.11100
H3856       H  0.91658539  0.79583735  0.52972625     0.07600
C3857       C  0.14908147  0.84548259  0.36803859    -0.11500
C3858       C  0.15005951  0.85036454  0.34085678     0.05700
C3859       C  0.13491647  0.85176271  0.32952261    -0.10300
C3860       C  0.11893906  0.84790390  0.34477670    -0.11900
C3861       C  0.11765434  0.84248926  0.37178858    -0.01700
C3862       C  0.13303566  0.84159107  0.38337221    -0.10800
C3863       C  0.16658355  0.85350654  0.32420766     0.05700
H3864       H  0.13538671  0.85578860  0.30878454     0.07600
H3865       H  0.10740880  0.84883967  0.33515224     0.11100
H3866       H  0.13244373  0.83733744  0.40402354     0.11300
H3867       H  0.16046758  0.84408684  0.37725435     0.07600
C3868       C  0.18519980  0.86338676  0.33458474    -0.11500
C3869       C  0.20062132  0.86530846  0.31959531    -0.10800
C3870       C  0.19780723  0.85748855  0.29378896    -0.01700
C3871       C  0.17931991  0.84826510  0.28295126    -0.11900
C3872       C  0.16382493  0.84621440  0.29807269    -0.10300
H3873       H  0.18782852  0.86953350  0.35438864     0.07600
H3874       H  0.21477803  0.87279001  0.32836255     0.11300
H3875       H  0.17674911  0.84206458  0.26318954     0.11100
H3876       H  0.14960059  0.83838541  0.28961251     0.07600
C3877       C  0.96751669  0.69185366  0.39174710    -0.11500
C3878       C  0.95114208  0.68385294  0.40795324     0.05700
C3879       C  0.94494677  0.69588209  0.41885944    -0.10300
C3880       C  0.95611936  0.71586424  0.41571430    -0.11900
C3881       C  0.97353032  0.72388106  0.40163794    -0.01700
C3882       C  0.97855873  0.71163139  0.38857395    -0.10800
C3883       C  0.94236743  0.66344757  0.41579018     0.05700
H3884       H  0.93232625  0.68995802  0.43140241     0.07600
H3885       H  0.95204519  0.72502121  0.42619853     0.11100
H3886       H  0.99185443  0.71744010  0.37750501     0.11300
H3887       H  0.97240486  0.68281369  0.38284357     0.07600
C3888       C  0.92312051  0.65012473  0.41034835    -0.11500
C3889       C  0.91612200  0.63043325  0.41426529    -0.10800
C3890       C  0.92830373  0.62392424  0.42376834    -0.01700
C3891       C  0.94712200  0.63751462  0.43108208    -0.11900
C3892       C  0.95406222  0.65700231  0.42707069    -0.10300
H3893       H  0.91387696  0.65484027  0.40165128     0.07600
H3894       H  0.90164323  0.62028777  0.40817676     0.11300
H3895       H  0.95685221  0.63300632  0.43860506     0.11100
H3896       H  0.96888303  0.66706460  0.43178809     0.07600
C3897       C  0.12560694  0.68875528  0.89037870    -0.11500
C3898       C  0.10979229  0.67142850  0.89839107     0.05700
C3899       C  0.09640276  0.65958202  0.87911521    -0.10300
C3900       C  0.09840719  0.66551157  0.85239981    -0.11900
C3901       C  0.11383522  0.68334413  0.84470883    -0.01700
C3902       C  0.12762048  0.69463002  0.86389731    -0.10800
C3903       C  0.10728222  0.66604440  0.92691598     0.05700
H3904       H  0.08406288  0.64609108  0.88489086     0.07600
H3905       H  0.08755026  0.65657312  0.83808065     0.11100
H3906       H  0.13986073  0.70831650  0.85855190     0.11300
H3907       H  0.13634987  0.69788587  0.90471066     0.07600
C3908       C  0.10238177  0.64744480  0.93451950    -0.11500
C3909       C  0.09993470  0.64231076  0.96133861    -0.10800
C3910       C  0.10209405  0.65559984  0.98127288    -0.01700
C3911       C  0.10736242  0.67436034  0.97371165    -0.11900
C3912       C  0.10997887  0.67954815  0.94671662    -0.10300
H3913       H  0.10052880  0.63688579  0.91970760     0.07600
H3914       H  0.09599019  0.62770378  0.96634076     0.11300
H3915       H  0.10896609  0.68483187  0.98850299     0.11100
H3916       H  0.11367828  0.69400556  0.94123161     0.07600
C3917       C  0.22128332  0.82186629  0.67418563    -0.11500
C3918       C  0.23876405  0.82254158  0.67915487     0.05700
C3919       C  0.23840469  0.80687020  0.69221524    -0.10300
C3920       C  0.22098848  0.79088843  0.69992380    -0.11900
C3921       C  0.20351912  0.79027525  0.69496014    -0.01700
C3922       C  0.20393827  0.80599951  0.68198611    -0.10800
C3923       C  0.25715841  0.83919076  0.66972245     0.05700
H3924       H  0.25158206  0.80680084  0.69601865     0.07600
H3925       H  0.22122656  0.77906756  0.70989142     0.11100
H3926       H  0.19081198  0.80608869  0.67778475     0.11300
H3927       H  0.22100439  0.83372287  0.66440376     0.07600
C3928       C  0.25817135  0.84733616  0.64451588    -0.11500
C3929       C  0.27551985  0.86219901  0.63474721    -0.10800
C3930       C  0.29240375  0.86950072  0.64994345    -0.01700
C3931       C  0.29131847  0.86184777  0.67557562    -0.11900
C3932       C  0.27390765  0.84678589  0.68529493    -0.10300
H3933       H  0.24564419  0.84177665  0.63186555     0.07600
H3934       H  0.27576286  0.86774129  0.61494937     0.11300
H3935       H  0.30404010  0.86705859  0.68775686     0.11100
H3936       H  0.27356784  0.84100143  0.70494245     0.07600
C3937       C  0.00521502  0.64449166  0.76461256    -0.11500
C3938       C  0.99884802  0.62804659  0.74893423     0.05700
C3939       C  0.01216801  0.62316431  0.73918981    -0.10300
C3940       C  0.03184774  0.63557346  0.74325598    -0.11900
C3941       C  0.03822474  0.65289714  0.75707697    -0.01700
C3942       C  0.02468294  0.65676164  0.76869049    -0.10800
C3943       C  0.97869331  0.61789006  0.74023229     0.05700
H3944       H  0.00744762  0.61053208  0.72695869     0.07600
H3945       H  0.04203011  0.63242453  0.73379238     0.11100
H3946       H  0.02922624  0.66999749  0.77944028     0.11300
H3947       H  0.99511714  0.64842068  0.77239122     0.07600
C3948       C  0.97203359  0.62789630  0.72480123    -0.11500
C3949       C  0.95247290  0.62053164  0.72109851    -0.10800
C3950       C  0.93916357  0.60303091  0.73290209    -0.01700
C3951       C  0.94589198  0.59216176  0.74627197    -0.11900
C3952       C  0.96560297  0.59960957  0.75001615    -0.10300
H3953       H  0.98197640  0.64200212  0.71700330     0.07600
H3954       H  0.94772190  0.62917416  0.71058518     0.11300
H3955       H  0.93594126  0.57872444  0.75579189     0.11100
H3956       H  0.97052290  0.59175469  0.76208645     0.07600
C3957       C  0.10003362  0.78195185  0.61810633    -0.11500
C3958       C  0.09618827  0.77417613  0.59235248     0.05700
C3959       C  0.09889096  0.75860262  0.58675845    -0.10300
C3960       C  0.10506826  0.75077138  0.60677705    -0.11900
C3961       C  0.10902470  0.75864627  0.63258304    -0.01700
C3962       C  0.10651176  0.77438033  0.63793740    -0.10800
C3963       C  0.08919575  0.78226758  0.57156127     0.05700
H3964       H  0.09588386  0.75229126  0.56704193     0.07600
H3965       H  0.10679626  0.73861257  0.60205379     0.11100
H3966       H  0.10924175  0.78068093  0.65764327     0.11300
H3967       H  0.09814706  0.79401535  0.62283289     0.07600
C3968       C  0.07376227  0.78521774  0.57689433    -0.11500
C3969       C  0.06689129  0.79254586  0.55717523    -0.10800
C3970       C  0.07552185  0.79734428  0.53185348    -0.01700
C3971       C  0.09135501  0.79491329  0.52683921    -0.11900
C3972       C  0.09798456  0.78725583  0.54640450    -0.10300
H3973       H  0.06674265  0.78143456  0.59616828     0.07600
H3974       H  0.05469043  0.79424727  0.56164583     0.11300
H3975       H  0.09826636  0.79835520  0.50748589     0.11100
H3976       H  0.11002472  0.78528283  0.54193660     0.07600
C3977       C  0.16902967  0.81957866  0.83253511    -0.11500
C3978       C  0.16383207  0.83285038  0.82352938     0.05700
C3979       C  0.15492007  0.83002074  0.79848638    -0.10300
C3980       C  0.15086491  0.81400330  0.78308068    -0.11900
C3981       C  0.15548390  0.80040148  0.79251686    -0.01700
C3982       C  0.16488248  0.80350970  0.81720874    -0.10800
C3983       C  0.16757532  0.84957419  0.84015313     0.05700
H3984       H  0.15058288  0.83992557  0.79112880     0.07600
H3985       H  0.14345275  0.81189290  0.76427906     0.11100
H3986       H  0.16877591  0.79334300  0.82489366     0.11300
H3987       H  0.17624075  0.82159566  0.85148367     0.07600
C3988       C  0.16409704  0.84770739  0.86784760    -0.11500
C3989       C  0.16688954  0.86347939  0.88309120    -0.10800
C3990       C  0.17316073  0.88135405  0.87084321    -0.01700
C3991       C  0.17711539  0.88320167  0.84327068    -0.11900
C3992       C  0.17434569  0.86754936  0.82817092    -0.10300
H3993       H  0.15875458  0.83394718  0.87758055     0.07600
H3994       H  0.16374754  0.86158621  0.90424742     0.11300
H3995       H  0.18228104  0.89680133  0.83314492     0.11100
H3996       H  0.17753341  0.86953261  0.80702421     0.07600
C3997       C  0.25922537  0.42893805  0.14887808    -0.11500
C3998       C  0.25748770  0.43633612  0.17340041     0.05700
C3999       C  0.27406488  0.44696013  0.18893461    -0.10300
C4000       C  0.29199705  0.45054334  0.17979326    -0.11900
C4001       C  0.29377630  0.44374466  0.15477890    -0.01700
C4002       C  0.27711844  0.43264298  0.13966032    -0.10800
C4003       C  0.23861534  0.43369447  0.18207804     0.05700
H4004       H  0.27318882  0.45265149  0.20809314     0.07600
H4005       H  0.30453180  0.45916199  0.19190113     0.11100
H4006       H  0.27794300  0.42708157  0.12035963     0.11300
H4007       H  0.24683060  0.42084557  0.13630501     0.07600
C4008       C  0.23748415  0.44892802  0.19376428    -0.11500
C4009       C  0.21980511  0.44679926  0.20117096    -0.10800
C4010       C  0.20271322  0.42931826  0.19729317    -0.01700
C4011       C  0.20381465  0.41402849  0.18563994    -0.11900
C4012       C  0.22154235  0.41622102  0.17801989    -0.10300
H4013       H  0.25027670  0.46267270  0.19675915     0.07600
H4014       H  0.21957417  0.45890550  0.21009744     0.11300
H4015       H  0.19097196  0.40038387  0.18229294     0.11100
H4016       H  0.22190573  0.40415903  0.16918559     0.07600
C4017       C  0.10593139  0.53596764  0.13555395    -0.11500
C4018       C  0.09131678  0.52089564  0.15033133     0.05700
C4019       C  0.07491872  0.52193784  0.15685583    -0.10300
C4020       C  0.07324386  0.53773954  0.14916624    -0.11900
C4021       C  0.08803612  0.55310117  0.13497658    -0.01700
C4022       C  0.10438016  0.55197175  0.12813812    -0.10800
C4023       C  0.09351702  0.50469695  0.16053279     0.05700
H4024       H  0.06335799  0.51048521  0.16804750     0.07600
H4025       H  0.06039923  0.53800821  0.15467493     0.11100
H4026       H  0.11595176  0.56343130  0.11698190     0.11300
H4027       H  0.11878529  0.53561416  0.13039261     0.07600
C4028       C  0.09974509  0.49476057  0.14403219    -0.11500
C4029       C  0.10181188  0.47960929  0.15430833    -0.10800
C4030       C  0.09796385  0.47430789  0.18139130    -0.01700
C4031       C  0.09170607  0.48432134  0.19768074    -0.11900
C4032       C  0.08945490  0.49919641  0.18739533    -0.10300
H4033       H  0.10291852  0.49866060  0.12319674     0.07600
H4034       H  0.10680285  0.47234470  0.14122547     0.11300
H4035       H  0.08867385  0.48079666  0.21863483     0.11100
H4036       H  0.08487162  0.50671042  0.20068659     0.07600
C4037       C  0.15390637  0.32910609  0.37244585    -0.11500
C4038       C  0.14801921  0.32404933  0.34584203     0.05700
C4039       C  0.14544327  0.30673601  0.33583403    -0.10300
C4040       C  0.14916365  0.29487725  0.35188622    -0.11900
C4041       C  0.15576138  0.30018674  0.37825424    -0.01700
C4042       C  0.15778009  0.31726916  0.38854778    -0.10800
C4043       C  0.14471939  0.33689151  0.32846963     0.05700
H4044       H  0.14061951  0.30241639  0.31553737     0.07600
H4045       H  0.14730964  0.28173445  0.34330207     0.11100
H4046       H  0.16294548  0.32179141  0.40866201     0.11300
H4047       H  0.15606746  0.34250066  0.38050855     0.07600
C4048       C  0.13423807  0.34516291  0.33808082    -0.11500
C4049       C  0.13182394  0.35801368  0.32231034    -0.10800
C4050       C  0.13984250  0.36286329  0.29656129    -0.01700
C4051       C  0.14977531  0.35408468  0.28651499    -0.11900
C4052       C  0.15223665  0.34118943  0.30241829    -0.10300
H4053       H  0.12798237  0.34173946  0.35786612     0.07600
H4054       H  0.12378449  0.36431206  0.33042084     0.11300
H4055       H  0.15611740  0.35763850  0.26679718     0.11100
H4056       H  0.16045120  0.33498048  0.29466723     0.07600
C4057       C  0.13974543  0.25434000  0.98532207    -0.11500
C4058       C  0.13657766  0.23627083  0.99315624     0.05700
C4059       C  0.11795474  0.22049378  0.99243188    -0.10300
C4060       C  0.10269197  0.22271204  0.98377359    -0.11900
C4061       C  0.10571571  0.24084993  0.97609156    -0.01700
C4062       C  0.12443409  0.25665690  0.97707945    -0.10800
C4063       C  0.15247552  0.23399049  0.00341877     0.05700
H4064       H  0.11525893  0.20644757  0.99853885     0.07600
H4065       H  0.08849273  0.21022724  0.98331405     0.11100
H4066       H  0.12729095  0.27080081  0.97127045     0.11300
H4067       H  0.15402234  0.26669863  0.98604177     0.07600
C4068       C  0.16769178  0.23683041  0.98680402    -0.11500
C4069       C  0.18240645  0.23407087  0.99671288    -0.10800
C4070       C  0.18226519  0.22877986  0.02352793    -0.01700
C4071       C  0.16714751  0.22641143  0.04015017    -0.11900
C4072       C  0.15234182  0.22880675  0.03012170    -0.10300
H4073       H  0.16799346  0.24086461  0.96610269     0.07600
H4074       H  0.19387251  0.23610300  0.98345118     0.11300
H4075       H  0.16652588  0.22234388  0.06089174     0.11100
H4076       H  0.14076533  0.22667572  0.04324745     0.07600
C4077       C  0.90165380  0.13807261  0.03183102    -0.11500
C4078       C  0.90231390  0.15316732  0.01681202     0.05700
C4079       C  0.88497024  0.15220524  0.00983213    -0.10300
C4080       C  0.86743080  0.13649687  0.01743048    -0.11900
C4081       C  0.86672240  0.12123494  0.03212026    -0.01700
C4082       C  0.88407329  0.12225453  0.03929481    -0.10800
C4083       C  0.92092867  0.16937724  0.00728192     0.05700
H4084       H  0.88495931  0.16366040  0.99849241     0.07600
H4085       H  0.85439500  0.13626958  0.01156666     0.11100
H4086       H  0.88408693  0.11082146  0.05068414     0.11300
H4087       H  0.91474280  0.13826775  0.03725470     0.07600
C4088       C  0.93719328  0.17781973  0.02385015    -0.11500
C4089       C  0.95486141  0.19244279  0.01413338    -0.10800
C4090       C  0.95667766  0.19877895  0.98754104    -0.01700
C4091       C  0.94027082  0.19054144  0.97124479    -0.11900
C4092       C  0.92267477  0.17612489  0.98098529    -0.10300
H4093       H  0.93625947  0.17305385  0.04429881     0.07600
H4094       H  0.96718967  0.19840172  0.02719890     0.11300
H4095       H  0.94105623  0.19504352  0.95068009     0.11100
H4096       H  0.91052777  0.16982746  0.96759001     0.07600
C4097       C  0.10092139  0.32270523  0.06011144    -0.11500
C4098       C  0.08935056  0.32651197  0.07693929     0.05700
C4099       C  0.06940332  0.31421495  0.07634873    -0.10300
C4100       C  0.06114439  0.29889150  0.05834841    -0.11900
C4101       C  0.07269556  0.29578708  0.04034610    -0.01700
C4102       C  0.09270358  0.30758321  0.04196919    -0.10800
C4103       C  0.09813155  0.34344780  0.09473929     0.05700
H4104       H  0.06020427  0.31667434  0.08951328     0.07600
H4105       H  0.04569969  0.29012910  0.05759656     0.11100
H4106       H  0.10204405  0.30559000  0.02847918     0.11300
H4107       H  0.11632313  0.33192305  0.06024474     0.07600
C4108       C  0.11371172  0.34697777  0.11102324    -0.11500
C4109       C  0.12120986  0.36219554  0.12910402    -0.10800
C4110       C  0.11343192  0.37437145  0.13106823    -0.01700
C4111       C  0.09866237  0.37156814  0.11346091    -0.11900
C4112       C  0.09097866  0.35615257  0.09564483    -0.10300
H4113       H  0.11958062  0.33747672  0.11053387     0.07600
H4114       H  0.13263595  0.36397673  0.14225958     0.11300
H4115       H  0.09233023  0.38065267  0.11441554     0.11100
H4116       H  0.07923334  0.35396057  0.08284587     0.07600
C4117       C  0.16434458  0.34478721  0.80408542    -0.11500
C4118       C  0.16089199  0.35025161  0.82921790     0.05700
C4119       C  0.17328246  0.36891944  0.83828397    -0.10300
C4120       C  0.18891244  0.38172022  0.82274879    -0.11900
C4121       C  0.19250322  0.37617559  0.79774032    -0.01700
C4122       C  0.17993300  0.35761150  0.78849209    -0.10800
C4123       C  0.14431251  0.33645509  0.84564822     0.05700
H4124       H  0.17085786  0.37364334  0.85735003     0.07600
H4125       H  0.19834214  0.39593948  0.83049466     0.11100
H4126       H  0.18249411  0.35278099  0.76960531     0.11300
H4127       H  0.15521001  0.33039595  0.79671194     0.07600
C4128       C  0.12671350  0.32446514  0.83330768    -0.11500
C4129       C  0.11125571  0.31078029  0.84804202    -0.10800
C4130       C  0.11284114  0.30869159  0.87568601    -0.01700
C4131       C  0.13031266  0.32101260  0.88831488    -0.11900
C4132       C  0.14592257  0.33478202  0.87340958    -0.10300
H4133       H  0.12485475  0.32568935  0.81213017     0.07600
H4134       H  0.09795868  0.30183755  0.83760174     0.11300
H4135       H  0.13199001  0.31984465  0.90955636     0.11100
H4136       H  0.15936276  0.34380945  0.88347265     0.07600
C4137       C  0.10867141  0.47903489  0.43779252    -0.11500
C4138       C  0.11210798  0.46417853  0.43089059     0.05700
C4139       C  0.11315391  0.45269662  0.45135772    -0.10300
C4140       C  0.10997323  0.45549445  0.47804174    -0.11900
C4141       C  0.10563427  0.46979512  0.48473179    -0.01700
C4142       C  0.10555016  0.48185767  0.46435583    -0.10800
C4143       C  0.11430101  0.46047729  0.40242701     0.05700
H4144       H  0.11570100  0.44105654  0.44661668     0.07600
H4145       H  0.10998457  0.44589304  0.49319531     0.11100
H4146       H  0.10245720  0.49318204  0.46882379     0.11300
H4147       H  0.10819453  0.48836396  0.42258587     0.07600
C4148       C  0.10214413  0.46091527  0.38255086    -0.11500
C4149       C  0.10370426  0.45640686  0.35596478    -0.10800
C4150       C  0.11746434  0.45139666  0.34879842    -0.01700
C4151       C  0.12998926  0.45164316  0.36863335    -0.11900
C4152       C  0.12840285  0.45608076  0.39502697    -0.10300
H4153       H  0.09104457  0.46416781  0.38771784     0.07600
H4154       H  0.09380186  0.45627134  0.34125628     0.11300
H4155       H  0.14095238  0.44810217  0.36387994     0.11100
H4156       H  0.13821424  0.45600800  0.40972214     0.07600
C4157       C  0.07225119  0.60951546  0.66948302    -0.11500
C4158       C  0.08609810  0.60780112  0.65445490     0.05700
C4159       C  0.10386639  0.62448348  0.64972696    -0.10300
C4160       C  0.10779194  0.64216978  0.66014549    -0.11900
C4161       C  0.09425250  0.64353016  0.67604426    -0.01700
C4162       C  0.07641874  0.62713162  0.68052366    -0.10800
C4163       C  0.08259713  0.58865317  0.64518081     0.05700
H4164       H  0.11510572  0.62384549  0.63883269     0.07600
H4165       H  0.12173176  0.65465283  0.65674568     0.11100
H4166       H  0.06573544  0.62796885  0.69262885     0.11300
H4167       H  0.05824659  0.59721722  0.67305586     0.07600
C4168       C  0.07117236  0.57194554  0.66029432    -0.11500
C4169       C  0.06914982  0.55428910  0.65280059    -0.10800
C4170       C  0.07885370  0.55298343  0.63041945    -0.01700
C4171       C  0.08998251  0.56946208  0.61500881    -0.11900
C4172       C  0.09157643  0.58700559  0.62202366    -0.10300
H4173       H  0.06427771  0.57253674  0.67848652     0.07600
H4174       H  0.06054968  0.54176924  0.66505167     0.11300
H4175       H  0.09735956  0.56872302  0.59738883     0.11100
H4176       H  0.10001832  0.59930090  0.60935636     0.07600
C4177       C  0.18727254  0.45738870  0.69889248    -0.11500
C4178       C  0.17240282  0.44279873  0.68388715     0.05700
C4179       C  0.17335836  0.42626923  0.67794801    -0.10300
C4180       C  0.18877632  0.42436074  0.68658050    -0.11900
C4181       C  0.20379565  0.43898214  0.70130142    -0.01700
C4182       C  0.20287019  0.45554735  0.70739540    -0.10800
C4183       C  0.15619240  0.44485905  0.67358426     0.05700
H4184       H  0.16205303  0.41467346  0.66671411     0.07600
H4185       H  0.18896168  0.41139826  0.68150713     0.11100
H4186       H  0.21413730  0.46703037  0.71883270     0.11300
H4187       H  0.18702306  0.47037116  0.70359530     0.07600
C4188       C  0.14714827  0.45238221  0.68951704    -0.11500
C4189       C  0.13197595  0.45433022  0.67932667    -0.10800
C4190       C  0.12574639  0.44902346  0.65289396    -0.01700
C4191       C  0.13461234  0.44118558  0.63724354    -0.11900
C4192       C  0.14959241  0.43914242  0.64742518    -0.10300
H4193       H  0.15178261  0.45671066  0.70985877     0.07600
H4194       H  0.12551147  0.46048743  0.69184851     0.11300
H4195       H  0.13017428  0.43687625  0.61682611     0.11100
H4196       H  0.15633030  0.43346779  0.63452440     0.07600
C4197       C  0.99822361  0.48248566  0.49050228    -0.11500
C4198       C  0.98772427  0.49076857  0.49998250     0.05700
C4199       C  0.99020137  0.49717839  0.52659180    -0.10300
C4200       C  0.00333623  0.49571180  0.54325673    -0.11900
C4201       C  0.01425936  0.48795899  0.53342600    -0.01700
C4202       C  0.01131682  0.48106953  0.50703742    -0.10800
C4203       C  0.97439624  0.49295547  0.48207535     0.05700
H4204       H  0.98232174  0.50376453  0.53428127     0.07600
H4205       H  0.00537045  0.50114657  0.56344163     0.11100
H4206       H  0.01928070  0.47466263  0.49902751     0.11300
H4207       H  0.99630886  0.47711486  0.47028332     0.07600
C4208       C  0.97983420  0.50001899  0.45591044    -0.11500
C4209       C  0.96780154  0.50378484  0.44004802    -0.10800
C4210       C  0.95017999  0.50047172  0.45018142    -0.01700
C4211       C  0.94431982  0.49220476  0.47567652    -0.11900
C4212       C  0.95632946  0.48858748  0.49146972    -0.10300
H4213       H  0.99374411  0.50347307  0.44821553     0.07600
H4214       H  0.97270403  0.51019161  0.42052967     0.11300
H4215       H  0.93069274  0.48920681  0.48395430     0.11100
H4216       H  0.95163811  0.48271188  0.51129348     0.07600
C4217       C  0.88298855  0.51247230  0.85259237    -0.11500
C4218       C  0.89048978  0.50369152  0.83607317     0.05700
C4219       C  0.89501244  0.50993885  0.80950630    -0.10300
C4220       C  0.89182113  0.52431913  0.79954787    -0.11900
C4221       C  0.88407206  0.53294589  0.81588824    -0.01700
C4222       C  0.87986992  0.52697461  0.84264518    -0.10800
C4223       C  0.89304624  0.48767263  0.84611219     0.05700
H4224       H  0.90054863  0.50333244  0.79612647     0.07600
H4225       H  0.89522271  0.52849774  0.77883088     0.11100
H4226       H  0.87381145  0.53322345  0.85576425     0.11300
H4227       H  0.87952371  0.50812340  0.87324150     0.07600
C4228       C  0.90906782  0.48617766  0.83857911    -0.11500
C4229       C  0.91110342  0.47075934  0.84733397    -0.10800
C4230       C  0.89705334  0.45636180  0.86357411    -0.01700
C4231       C  0.88107351  0.45788307  0.87115325    -0.11900
C4232       C  0.87914668  0.47338274  0.86265299    -0.10300
H4233       H  0.92012381  0.49702142  0.82604203     0.07600
H4234       H  0.92355622  0.46998337  0.84112108     0.11300
H4235       H  0.87004286  0.44709618  0.88379656     0.11100
H4236       H  0.86652780  0.47394394  0.86856479     0.07600
C4237       C  0.80023839  0.23805064  0.82451343    -0.11500
C4238       C  0.80110640  0.25558530  0.81922761     0.05700
C4239       C  0.78602160  0.25549695  0.80500220    -0.10300
C4240       C  0.77027810  0.23814369  0.79657624    -0.11900
C4241       C  0.76948035  0.22058321  0.80189250    -0.01700
C4242       C  0.78470381  0.22082493  0.81592979    -0.10800
C4243       C  0.81744846  0.27367854  0.82957151     0.05700
H4244       H  0.78624865  0.26880678  0.80085329     0.07600
H4245       H  0.75883647  0.23848950  0.78573976     0.11100
H4246       H  0.78463790  0.20763722  0.82042014     0.11300
H4247       H  0.81170598  0.23766771  0.83522580     0.07600
C4248       C  0.82367307  0.27441277  0.85592527    -0.11500
C4249       C  0.83905263  0.29116288  0.86605626    -0.10800
C4250       C  0.84879598  0.30769179  0.85007334    -0.01700
C4251       C  0.84272136  0.30693882  0.82353529    -0.11900
C4252       C  0.82710475  0.29012615  0.81344063    -0.10300
H4253       H  0.81640924  0.26204537  0.86891620     0.07600
H4254       H  0.84322047  0.29116667  0.88659991     0.11300
H4255       H  0.84977653  0.31944078  0.81075709     0.11100
H4256       H  0.82268050  0.28991129  0.79298203     0.07600
C4257       C  0.93406857  0.29905065  0.94196698    -0.11500
C4258       C  0.92894695  0.28695191  0.91970030     0.05700
C4259       C  0.91610557  0.28719393  0.90096554    -0.10300
C4260       C  0.90921461  0.30001427  0.90385751    -0.11900
C4261       C  0.91547314  0.31306648  0.92515395    -0.01700
C4262       C  0.92762575  0.31219056  0.94444915    -0.10800
C4263       C  0.93967639  0.27686840  0.91403138     0.05700
H4264       H  0.91222178  0.27817794  0.88344199     0.07600
H4265       H  0.90027218  0.30080518  0.88835059     0.11100
H4266       H  0.93298920  0.32243124  0.96064433     0.11300
H4267       H  0.94423508  0.29935023  0.95636306     0.07600
C4268       C  0.95321934  0.28363623  0.89332594    -0.11500
C4269       C  0.96657439  0.27745422  0.89121255    -0.10800
C4270       C  0.96624480  0.26394116  0.90925803    -0.01700
C4271       C  0.95180727  0.25609068  0.92878465    -0.11900
C4272       C  0.93878475  0.26273824  0.93142666    -0.10300
H4273       H  0.95434553  0.29475618  0.87998267     0.07600
H4274       H  0.97778178  0.28393322  0.87631991     0.11300
H4275       H  0.95156670  0.24597293  0.94328378     0.11100
H4276       H  0.92861384  0.25753325  0.94774960     0.07600
C4277       C  0.99763359  0.46281445  0.72148255    -0.11500
C4278       C  0.99554439  0.44838749  0.73928293     0.05700
C4279       C  0.00914836  0.44235587  0.73872209    -0.10300
C4280       C  0.02403207  0.44993865  0.72001523    -0.11900
C4281       C  0.02553277  0.46357852  0.70113645    -0.01700
C4282       C  0.01238890  0.47024089  0.70250365    -0.10800
C4283       C  0.97914174  0.43936712  0.75819012     0.05700
H4284       H  0.00810379  0.43153600  0.75258437     0.07600
H4285       H  0.03383740  0.44444049  0.71959218     0.11100
H4286       H  0.01312493  0.48076456  0.68834050     0.11300
H4287       H  0.98741261  0.46780663  0.72155873     0.07600
C4288       C  0.97423161  0.45067107  0.77389718    -0.11500
C4289       C  0.95995500  0.44220133  0.79341193    -0.10800
C4290       C  0.95000020  0.42220128  0.79728591    -0.01700
C4291       C  0.95423644  0.41082805  0.78060889    -0.11900
C4292       C  0.96873653  0.41933607  0.76138996    -0.10300
H4293       H  0.98199717  0.46612521  0.77186809     0.07600
H4294       H  0.95704597  0.45136894  0.80597953     0.11300
H4295       H  0.94697568  0.39542755  0.78325038     0.11100
H4296       H  0.97205914  0.41026638  0.74927682     0.07600
C4297       C  0.98230792  0.47515363  0.00253110    -0.11500
C4298       C  0.99145990  0.49345980  0.99095690     0.05700
C4299       C  0.98793743  0.49540635  0.96390701    -0.10300
C4300       C  0.97497245  0.47941112  0.94908687    -0.11900
C4301       C  0.96521055  0.46123786  0.96113890    -0.01700
C4302       C  0.96935602  0.45927194  0.98785279    -0.10800
C4303       C  0.00445767  0.51038199  0.00727300     0.05700
H4304       H  0.99476320  0.50936429  0.95442227     0.07600
H4305       H  0.97214055  0.48136339  0.92853429     0.11100
H4306       H  0.96240647  0.44541126  0.99762951     0.11300
H4307       H  0.98512193  0.47309061  0.02304298     0.07600
C4308       C  0.99996413  0.51190401  0.03399656    -0.11500
C4309       C  0.01217407  0.52790339  0.04932578    -0.10800
C4310       C  0.02907639  0.54274003  0.03818228    -0.01700
C4311       C  0.03365044  0.54104062  0.01156013    -0.11900
C4312       C  0.02149558  0.52508782  0.99631924    -0.10300
H4313       H  0.98677734  0.50090341  0.04289931     0.07600
H4314       H  0.00812484  0.52888425  0.06960823     0.11300
H4315       H  0.04658593  0.55218197  0.00227258     0.11100
H4316       H  0.02551557  0.52421638  0.97598099     0.07600
C4317       C  0.96839579  0.19870735  0.72960250    -0.11500
C4318       C  0.98659344  0.21243780  0.73853869     0.05700
C4319       C  0.99985715  0.22554940  0.72000321    -0.10300
C4320       C  0.99466492  0.22540755  0.69323936    -0.11900
C4321       C  0.97612218  0.21214320  0.68466273    -0.01700
C4322       C  0.96324689  0.19853414  0.70304088    -0.10800
C4323       C  0.99138754  0.21357493  0.76730917     0.05700
H4324       H  0.01398870  0.23638571  0.72644373     0.07600
H4325       H  0.00482512  0.23611266  0.67961166     0.11100
H4326       H  0.94890930  0.18790735  0.69701033     0.11300
H4327       H  0.95803181  0.18822444  0.74327247     0.07600
C4328       C  0.97834929  0.21241932  0.78694874    -0.11500
C4329       C  0.98361474  0.21538123  0.81391940    -0.10800
C4330       C  0.00199785  0.21949802  0.82170729    -0.01700
C4331       C  0.01454490  0.21946716  0.80213484    -0.11900
C4332       C  0.00932963  0.21662304  0.77529308    -0.10300
H4333       H  0.96439456  0.21011510  0.78131399     0.07600
H4334       H  0.97367166  0.21539004  0.82842045     0.11300
H4335       H  0.02876442  0.22235024  0.80740468     0.11100
H4336       H  0.01948464  0.21717341  0.76068163     0.07600
C4337       C  0.83856310  0.10708380  0.52125628    -0.11500
C4338       C  0.84262549  0.09305511  0.51194870     0.05700
C4339       C  0.86167451  0.09702492  0.51234287    -0.10300
C4340       C  0.87635204  0.11455411  0.52190865    -0.11900
C4341       C  0.87244222  0.12875862  0.53100147    -0.01700
C4342       C  0.85334533  0.12483885  0.53041673    -0.10800
C4343       C  0.82735937  0.07458197  0.50075721     0.05700
H4344       H  0.86519522  0.08645609  0.50531523     0.07600
H4345       H  0.89084416  0.11703877  0.52193533     0.11100
H4346       H  0.84979690  0.13541808  0.53728538     0.11300
H4347       H  0.82401541  0.10444024  0.52094089     0.07600
C4348       C  0.81074761  0.06235531  0.51537702    -0.11500
C4349       C  0.79711637  0.04442274  0.50502024    -0.10800
C4350       C  0.79965622  0.03858436  0.47959467    -0.01700
C4351       C  0.81603771  0.05117141  0.46481724    -0.11900
C4352       C  0.82976306  0.06880027  0.47536200    -0.10300
H4353       H  0.80857940  0.06646762  0.53505607     0.07600
H4354       H  0.78461901  0.03514316  0.51687351     0.11300
H4355       H  0.81852001  0.04720915  0.44522001     0.11100
H4356       H  0.84235973  0.07798879  0.46361783     0.07600
C4357       C  0.05404577  0.24491805  0.52433880    -0.11500
C4358       C  0.05480147  0.23612175  0.50060510     0.05700
C4359       C  0.03798306  0.22576135  0.48554100    -0.10300
C4360       C  0.02065147  0.22395123  0.49437486    -0.11900
C4361       C  0.01980807  0.23217190  0.51868482    -0.01700
C4362       C  0.03675727  0.24287789  0.53334356    -0.10800
C4363       C  0.07315013  0.23775867  0.49191125     0.05700
H4364       H  0.03826071  0.21903573  0.46699810     0.07600
H4365       H  0.00781870  0.21556886  0.48270375     0.11100
H4366       H  0.03660671  0.24946512  0.55208562     0.11300
H4367       H  0.06676946  0.25294511  0.53636186     0.07600
C4368       C  0.09002788  0.25562609  0.49224011    -0.11500
C4369       C  0.10742976  0.25731428  0.48449250    -0.10800
C4370       C  0.10846226  0.24113986  0.47632032    -0.01700
C4371       C  0.09156307  0.22317208  0.47633147    -0.11900
C4372       C  0.07407009  0.22152046  0.48395967    -0.10300
H4373       H  0.08971485  0.26837815  0.49820679     0.07600
H4374       H  0.12007807  0.27140435  0.48475305     0.11300
H4375       H  0.09182110  0.21040599  0.47032227     0.11100
H4376       H  0.06128641  0.20752316  0.48395793     0.07600
C4377       C  0.82996970  0.17525225  0.63238494    -0.11500
C4378       C  0.83162134  0.18019267  0.65955744     0.05700
C4379       C  0.84974085  0.18976516  0.67133440    -0.10300
C4380       C  0.86592251  0.19401812  0.65644768    -0.11900
C4381       C  0.86437243  0.18868359  0.62941232    -0.01700
C4382       C  0.84624565  0.17947014  0.61739099    -0.10800
C4383       C  0.81459733  0.17587268  0.67557264     0.05700
H4384       H  0.85140955  0.19410848  0.69205241     0.07600
H4385       H  0.87969418  0.20140692  0.66630812     0.11100
H4386       H  0.84460836  0.17518264  0.59666112     0.11300
H4387       H  0.81606046  0.16782858  0.62290430     0.07600
C4388       C  0.80084528  0.17981437  0.66514039    -0.11500
C4389       C  0.78492091  0.17614402  0.68022897    -0.10800
C4390       C  0.78234298  0.16838299  0.70610458    -0.01700
C4391       C  0.79619692  0.16458422  0.71673786    -0.11900
C4392       C  0.81224019  0.16831909  0.70154888    -0.10300
H4393       H  0.80251849  0.18594165  0.64538315     0.07600
H4394       H  0.77452772  0.17931001  0.67147193     0.11300
H4395       H  0.79441724  0.15834744  0.73643702     0.11100
H4396       H  0.82266433  0.16504520  0.70990664     0.07600
C4397       C  0.04082279  0.31812186  0.57508858    -0.11500
C4398       C  0.03828212  0.33185701  0.58879596     0.05700
C4399       C  0.02310963  0.32580835  0.60694394    -0.10300
C4400       C  0.00980746  0.30635055  0.60989809    -0.11900
C4401       C  0.01167054  0.29258230  0.59513816    -0.01700
C4402       C  0.02770837  0.29853389  0.57853021    -0.10800
C4403       C  0.04913348  0.35230452  0.58133850     0.05700
H4404       H  0.02080506  0.33623656  0.61740557     0.07600
H4405       H  0.99742590  0.30210012  0.62254699     0.11100
H4406       H  0.02919900  0.28818259  0.56655398     0.11300
H4407       H  0.05232018  0.32258741  0.56073512     0.07600
C4408       C  0.06302976  0.36584738  0.59849065    -0.11500
C4409       C  0.06994929  0.38545596  0.59444326    -0.10800
C4410       C  0.06261625  0.39164144  0.57367007    -0.01700
C4411       C  0.04952114  0.37811809  0.55568762    -0.11900
C4412       C  0.04300074  0.35860772  0.55932383    -0.10300
H4413       H  0.06763985  0.36119398  0.61584733     0.07600
H4414       H  0.07968099  0.39562031  0.60892093     0.11300
H4415       H  0.04342555  0.38256389  0.53985502     0.11100
H4416       H  0.03203708  0.34831987  0.54616832     0.07600
C4417       C  0.86426392  0.32685086  0.05065885    -0.11500
C4418       C  0.86439897  0.33972014  0.06973196     0.05700
C4419       C  0.86768497  0.35770167  0.06133947    -0.10300
C4420       C  0.87157126  0.36305395  0.03459667    -0.11900
C4421       C  0.87249921  0.35063041  0.01568006    -0.01700
C4422       C  0.86826134  0.33224939  0.02382009    -0.10800
C4423       C  0.86189519  0.33462382  0.09841411     0.05700
H4424       H  0.86754949  0.36773314  0.07555832     0.07600
H4425       H  0.87450656  0.37724889  0.02888968     0.11100
H4426       H  0.86897689  0.32243710  0.00977336     0.11300
H4427       H  0.86186658  0.31290668  0.05671592     0.07600
C4428       C  0.84750570  0.31643006  0.10656362    -0.11500
C4429       C  0.84644620  0.31068314  0.13304022    -0.10800
C4430       C  0.85981358  0.32298717  0.15199091    -0.01700
C4431       C  0.87349674  0.34165140  0.14424624    -0.11900
C4432       C  0.87453905  0.34743120  0.11760993    -0.10300
H4433       H  0.83736007  0.30646822  0.09226999     0.07600
H4434       H  0.83550250  0.29629436  0.13849351     0.11300
H4435       H  0.88398293  0.35138290  0.15839250     0.11100
H4436       H  0.88580458  0.36156637  0.11175977     0.07600
C4437       C  0.75821148  0.18575167  0.32341181    -0.11500
C4438       C  0.74099563  0.18500740  0.31599262     0.05700
C4439       C  0.74203823  0.19973365  0.29969787    -0.10300
C4440       C  0.75975475  0.21487677  0.29136425    -0.11900
C4441       C  0.77696605  0.21570481  0.29894496    -0.01700
C4442       C  0.77595739  0.20086376  0.31493263    -0.10800
C4443       C  0.72210484  0.16927149  0.32581196     0.05700
H4444       H  0.72916052  0.19982376  0.29386118     0.07600
H4445       H  0.75995041  0.22601513  0.27899213     0.11100
H4446       H  0.78889777  0.20105280  0.32121003     0.11300
H4447       H  0.75798463  0.17456182  0.33568110     0.07600
C4448       C  0.70567452  0.16149958  0.30952522    -0.11500
C4449       C  0.68790204  0.14709070  0.31919294    -0.10800
C4450       C  0.68609396  0.14016914  0.34544378    -0.01700
C4451       C  0.70258268  0.14781556  0.36156242    -0.11900
C4452       C  0.72028208  0.16213178  0.35190942    -0.10300
H4453       H  0.70655667  0.16649060  0.28921920     0.07600
H4454       H  0.67553320  0.14160011  0.30623973     0.11300
H4455       H  0.70181923  0.14290672  0.38190108     0.11100
H4456       H  0.73247894  0.16793546  0.36520125     0.07600
C4457       C  0.87469862  0.38380913  0.35305625    -0.11500
C4458       C  0.88209298  0.40004962  0.33631951     0.05700
C4459       C  0.88730284  0.39847295  0.31013947    -0.10300
C4460       C  0.88530001  0.38126352  0.30086541    -0.11900
C4461       C  0.87801787  0.36496980  0.31744637    -0.01700
C4462       C  0.87278852  0.36645443  0.34376306    -0.10800
C4463       C  0.88471489  0.41877564  0.34570508     0.05700
H4464       H  0.89274705  0.41056917  0.29658528     0.07600
H4465       H  0.88943152  0.38075866  0.28046044     0.11100
H4466       H  0.86696916  0.35416709  0.35699568     0.11300
H4467       H  0.87061844  0.38460660  0.37338580     0.07600
C4468       C  0.87042205  0.41989119  0.36034008    -0.11500
C4469       C  0.87265000  0.43776231  0.36743386    -0.10800
C4470       C  0.88931349  0.45488847  0.36029749    -0.01700
C4471       C  0.90372530  0.45365457  0.34613059    -0.11900
C4472       C  0.90143064  0.43589301  0.33890285    -0.10300
H4473       H  0.85734160  0.40696597  0.36576354     0.07600
H4474       H  0.86136852  0.43816260  0.37860183     0.11300
H4475       H  0.91683847  0.46646562  0.34043786     0.11100
H4476       H  0.91283435  0.43554898  0.32797102     0.07600
C4477       C  0.90939514  0.23699977  0.42876852    -0.11500
C4478       C  0.88947761  0.22894906  0.42656312     0.05700
C4479       C  0.87745189  0.21347404  0.44309086    -0.10300
C4480       C  0.88516650  0.20660495  0.46216531    -0.11900
C4481       C  0.90510437  0.21494085  0.46495168    -0.01700
C4482       C  0.91714216  0.22996687  0.44764996    -0.10800
C4483       C  0.88116027  0.23667005  0.40721902     0.05700
H4484       H  0.86205290  0.20709156  0.44183825     0.07600
H4485       H  0.87549342  0.19512065  0.47528462     0.11100
H4486       H  0.93255730  0.23686950  0.44947830     0.11300
H4487       H  0.91895463  0.24882545  0.41601973     0.07600
C4488       C  0.88820037  0.25647631  0.40524612    -0.11500
C4489       C  0.88046128  0.26368343  0.38663881    -0.10800
C4490       C  0.86572195  0.25122224  0.36938697    -0.01700
C4491       C  0.85846117  0.23138308  0.37181683    -0.11900
C4492       C  0.86602799  0.22419063  0.39063915    -0.10300
H4493       H  0.89974522  0.26637154  0.41802289     0.07600
H4494       H  0.88658077  0.27905888  0.38501747     0.11300
H4495       H  0.84725593  0.22141842  0.35867295     0.11100
H4496       H  0.86042937  0.20887137  0.39171299     0.07600
C4497       C  0.96720573  0.38486354  0.26776394    -0.11500
C4498       C  0.98005791  0.38521215  0.24853228     0.05700
C4499       C  0.97277130  0.37330824  0.22608072    -0.10300
C4500       C  0.95315717  0.36026606  0.22391309    -0.11900
C4501       C  0.94042441  0.35929499  0.24373109    -0.01700
C4502       C  0.94749012  0.37212505  0.26523044    -0.10800
C4503       C  0.00098879  0.39564772  0.25353883     0.05700
H4504       H  0.98240745  0.37309379  0.21121851     0.07600
H4505       H  0.94803372  0.35017434  0.20753110     0.11100
H4506       H  0.93795889  0.37125810  0.28108260     0.11300
H4507       H  0.97252729  0.39380244  0.28533734     0.07600
C4508       C  0.01392040  0.40792188  0.23414426    -0.11500
C4509       C  0.03363216  0.41504410  0.23707852    -0.10800
C4510       C  0.04061909  0.40955212  0.25905750    -0.01700
C4511       C  0.02778666  0.39792950  0.27893366    -0.11900
C4512       C  0.00817820  0.39128730  0.27640819    -0.10300
H4513       H  0.00868400  0.41132037  0.21623433     0.07600
H4514       H  0.04324500  0.42360029  0.22118773     0.11300
H4515       H  0.03283985  0.39318842  0.29572104     0.11100
H4516       H  0.99847258  0.38161118  0.29141066     0.07600
C4517       C  0.81998396  0.16105091  0.12870582    -0.11500
C4518       C  0.82303286  0.16104738  0.15639917     0.05700
C4519       C  0.82212907  0.14482180  0.16814943    -0.10300
C4520       C  0.81776877  0.12877045  0.15283864    -0.11900
C4521       C  0.81412855  0.12845758  0.12531424    -0.01700
C4522       C  0.81562427  0.14491306  0.11327376    -0.10800
C4523       C  0.82751958  0.17798073  0.17302735     0.05700
H4524       H  0.82490795  0.14454924  0.18923690     0.07600
H4525       H  0.81702515  0.11646452  0.16277833     0.11100
H4526       H  0.81292687  0.14514196  0.09214334     0.11300
H4527       H  0.82053034  0.17335896  0.11906896     0.07600
C4528       C  0.83972764  0.19645661  0.16314850    -0.11500
C4529       C  0.84418098  0.21244132  0.17866259    -0.10800
C4530       C  0.83659216  0.21039847  0.20451747    -0.01700
C4531       C  0.82464089  0.19194144  0.21473884    -0.11900
C4532       C  0.82004841  0.17585152  0.19904697    -0.10300
H4533       H  0.84604396  0.19858589  0.14348565     0.07600
H4534       H  0.85360879  0.22650107  0.17030863     0.11300
H4535       H  0.81844349  0.18997511  0.23446786     0.11100
H4536       H  0.81040516  0.16175941  0.20710428     0.07600
loop_ 
_geom_bond_atom_site_label_1 
_geom_bond_atom_site_label_2 
_geom_bond_distance 
_geom_bond_site_symmetry_2 
_ccdc_geom_bond_type 
Zr1           O2   2.443       .  S
Zr1           O3   2.451       .  S
Zr1           O4   2.438       .  S
Zr1           O7   2.455       .  S
Zr1           O9   2.387       .  S
Zr1          O10   2.379       .  S
Zr1          O11   2.419       .  S
Zr1          O12   2.405       .  S
O2           H58   0.990       .  S
O2           H66   0.991       .  S
O3           C23   1.287       .  A
O4           C25   1.285       .  A
O5          Zr15   2.391       .  S
O5           C24   1.278       .  A
O6          Zr14   2.436       .  S
O6           C25   1.285       .  A
O7           C24   1.289       .  A
O8          Zr16   2.423       .  S
O8           C23   1.282       .  A
O9          Zr14   2.404       .  S
O9          Zr16   2.377       .  S
O10         Zr15   2.389       .  S
O10         Zr16   2.374       .  S
O10          H45   0.968       .  S
O11         Zr14   2.412       .  S
O11         Zr31   2.381       .  S
O11          H48   0.962       .  S
O12         Zr15   2.382       .  S
O12         Zr31   2.392       .  S
Zr13         O38   2.439       .  S
Zr13         O32   2.456       .  S
Zr13         O40   2.460       .  S
Zr13         O28   2.426       .  S
Zr13         O19   2.402       .  S
Zr13         O20   2.416       .  S
Zr13         O21   2.382       .  S
Zr13         O22   2.376       .  S
Zr14         O33   2.437       .  S
Zr14         O26   2.435       .  S
Zr14         O27   2.465       .  S
Zr14         O20   2.399       .  S
Zr14         O21   2.396       .  S
Zr15         O17   2.437       .  S
Zr15         O39   2.437       .  S
Zr15         O41   2.391       .  S
Zr15         O19   2.381       .  S
Zr15         O22   2.384       .  S
Zr16         O42   2.436       .  S
Zr16         O43   2.436       .  S
Zr16         O18   2.438       .  S
Zr16         O19   2.399       .  S
Zr16         O20   2.390       .  S
O17          H54   0.990       .  S
O18          H49   0.990       .  S
O18          H63   0.990       .  S
O20          H46   0.965       .  S
O21         Zr31   2.384       .  S
O22         Zr31   2.374       .  S
O22          H47   0.966       .  S
C23        C4441   1.490       .  S
C24        C4530   1.476       .  S
C25        C4490   1.479       .  S
O26          H62   0.990       .  S
O27          C29   1.291       .  A
O28          C29   1.284       .  A
C29        C4461   1.492       .  S
O30         Zr31   2.440       .  S
O30          H59   0.990       .  S
Zr31         O34   2.437       .  S
Zr31         O35   2.440       .  S
Zr31         O36   2.410       .  S
O32          C37   1.287       .  A
O33          H50   0.990       .  S
O33          H65   0.990       .  S
O34          H51   0.990       .  S
O35          H55   0.990       .  S
O35          H64   0.990       .  S
O36          C37   1.280       .  A
C37        C4501   1.473       .  S
O38          H57   0.990       .  S
O38          H61   0.990       .  S
O39          H53   0.990       .  S
O39          H60   0.990       .  S
O40          C44   1.289       .  A
O41          C44   1.278       .  A
O42          H52   0.991       .  S
O43          H56   0.990       .  S
C44        C4430   1.479       .  S
Zr67         O68   2.441       .  S
Zr67         O69   2.445       .  S
Zr67         O70   2.435       .  S
Zr67         O73   2.451       .  S
Zr67         O75   2.390       .  S
Zr67         O76   2.381       .  S
Zr67         O77   2.415       .  S
Zr67         O78   2.400       .  S
O68         H124   0.990       .  S
O68         H132   0.990       .  S
O69          C89   1.286       .  A
O70          C91   1.285       .  A
O71         Zr81   2.388       .  S
O71          C90   1.277       .  A
O72         Zr80   2.444       .  S
O72          C91   1.287       .  A
O73          C90   1.288       .  A
O74         Zr82   2.436       .  S
O74          C89   1.285       .  A
O75         Zr80   2.401       .  S
O75         Zr82   2.379       .  S
O76         Zr81   2.390       .  S
O76         Zr82   2.373       .  S
O76         H111   0.965       .  S
O77         Zr80   2.408       .  S
O77         Zr97   2.379       .  S
O77         H114   0.963       .  S
O78         Zr81   2.378       .  S
O78         Zr97   2.388       .  S
Zr79        O104   2.440   1_655  S
Zr79         O98   2.453       .  S
Zr79        O106   2.465       .  S
Zr79         O94   2.427   1_655  S
Zr79         O85   2.405       .  S
Zr79         O86   2.419       .  S
Zr79         O87   2.380       .  S
Zr79         O88   2.374       .  S
Zr80         O99   2.439       .  S
Zr80         O92   2.437       .  S
Zr80         O93   2.446       .  S
Zr80         O86   2.405       .  S
Zr80         O87   2.396       .  S
Zr81         O83   2.435       .  S
Zr81        O105   2.439       .  S
Zr81        O107   2.388       .  S
Zr81         O85   2.383       .  S
Zr81         O88   2.382       .  S
Zr82        O108   2.436       .  S
Zr82        O109   2.435       .  S
Zr82         O84   2.436       .  S
Zr82         O85   2.400       .  S
Zr82         O86   2.396       .  S
O83         H120   0.990       .  S
O84         H115   0.990       .  S
O84         H129   0.990       .  S
O86         H112   0.965       .  S
O87         Zr97   2.377       .  S
O88         Zr97   2.372       .  S
O88         H113   0.965       .  S
C89        C4341   1.493       .  S
C90        C4381   1.477       .  S
C91        C4481   1.481       .  S
O92         H128   0.990       .  S
O93          C95   1.287   1_655  A
O94          C95   1.284       .  A
C95        C4361   1.482       .  S
O96         Zr97   2.438       .  S
O96         H125   0.990       .  S
Zr97        O100   2.436       .  S
Zr97        O101   2.438       .  S
Zr97        O102   2.404       .  S
O98         C103   1.287       .  A
O99         H116   0.990       .  S
O99         H131   0.990       .  S
O100        H117   0.990       .  S
O101        H121   0.990       .  S
O101        H130   0.990       .  S
O102        C103   1.279       .  A
C103       C4401   1.474   1_655  S
O104        H123   0.990       .  S
O104        H127   0.991       .  S
O105        H119   0.990       .  S
O105        H126   0.990       .  S
O106        C110   1.290       .  A
O107        C110   1.277       .  A
O108        H118   0.990       .  S
O109        H122   0.990       .  S
C110       C4321   1.481       .  S
Zr133       O134   2.441       .  S
Zr133       O135   2.445       .  S
Zr133       O136   2.429       .  S
Zr133       O139   2.453       .  S
Zr133       O141   2.387       .  S
Zr133       O142   2.379       .  S
Zr133       O143   2.417       .  S
Zr133       O144   2.397       .  S
O134        H190   0.990       .  S
O134        H198   0.991       .  S
O135        C155   1.285       .  A
O136        C157   1.283       .  A
O137       Zr147   2.401       .  S
O137        C156   1.280       .  A
O138       Zr146   2.456       .  S
O138        C157   1.289       .  A
O139        C156   1.287       .  A
O140       Zr148   2.419       .  S
O140        C155   1.281       .  A
O141       Zr146   2.403       .  S
O141       Zr148   2.381       .  S
O142       Zr147   2.386       .  S
O142       Zr148   2.376       .  S
O142        H177   0.966       .  S
O143       Zr146   2.412       .  S
O143       Zr163   2.388       .  S
O143        H180   0.962       .  S
O144       Zr147   2.381       .  S
O144       Zr163   2.388       .  S
Zr145       O170   2.439       .  S
Zr145       O164   2.458       .  S
Zr145       O172   2.455       .  S
Zr145       O160   2.428       .  S
Zr145       O151   2.405       .  S
Zr145       O152   2.414       .  S
Zr145       O153   2.379       .  S
Zr145       O154   2.380       .  S
Zr146       O165   2.436       .  S
Zr146       O158   2.436       .  S
Zr146       O159   2.463       .  S
Zr146       O152   2.405       .  S
Zr146       O153   2.395       .  S
Zr147       O149   2.436       .  S
Zr147       O171   2.437       .  S
Zr147       O173   2.398       .  S
Zr147       O151   2.383       .  S
Zr147       O154   2.393       .  S
Zr148       O174   2.438       .  S
Zr148       O175   2.436       .  S
Zr148       O150   2.437       .  S
Zr148       O151   2.396       .  S
Zr148       O152   2.389       .  S
O149        H186   0.990   1_556  S
O150        H181   0.990       .  S
O150        H195   0.990       .  S
O152        H178   0.965       .  S
O153       Zr163   2.377       .  S
O154       Zr163   2.372       .  S
O154        H179   0.966       .  S
C155       C4230   1.485       .  S
C156       C4301   1.481       .  S
C157       C4290   1.484       .  S
O158        H194   0.990       .  S
O159        C161   1.291       .  A
O160        C161   1.285       .  A
C161       C4250   1.490       .  S
O162       Zr163   2.438       .  S
O162        H191   0.990       .  S
Zr163       O166   2.436       .  S
Zr163       O167   2.440       .  S
Zr163       O168   2.413       .  S
O164        C169   1.287       .  A
O165        H182   0.990       .  S
O165        H197   0.990       .  S
O166        H183   0.990       .  S
O167        H187   0.990       .  S
O167        H196   0.990       .  S
O168        C169   1.280       .  A
C169       C4261   1.476       .  S
O170        H189   0.990       .  S
O170        H193   0.990       .  S
O171        H185   0.990       .  S
O171        H192   0.990       .  S
O172        C176   1.290       .  A
O173        C176   1.279       .  A
O174        H184   0.990       .  S
O175        H188   0.990       .  S
C176       C4421   1.479   1_556  S
Zr199       O200   2.442       .  S
Zr199       O201   2.445       .  S
Zr199       O202   2.448       .  S
Zr199       O205   2.464       .  S
Zr199       O207   2.388       .  S
Zr199       O208   2.386       .  S
Zr199       O209   2.415       .  S
Zr199       O210   2.398       .  S
O200        H256   0.990       .  S
O200        H264   0.991       .  S
O201        C221   1.285       .  A
O202        C223   1.286       .  A
O203       Zr213   2.382       .  S
O203        C222   1.276       .  A
O204       Zr212   2.443       .  S
O204        C223   1.287       .  A
O205        C222   1.290       .  A
O206       Zr214   2.428       .  S
O206        C221   1.282       .  A
O207       Zr212   2.403       .  S
O207       Zr214   2.382       .  S
O208       Zr213   2.385       .  S
O208       Zr214   2.376       .  S
O208        H243   0.966       .  S
O209       Zr212   2.408       .  S
O209       Zr229   2.387       .  S
O209        H246   0.962       .  S
O210       Zr213   2.387       .  S
O210       Zr229   2.384       .  S
Zr211       O236   2.440       .  S
Zr211       O230   2.449       .  S
Zr211       O238   2.463       .  S
Zr211       O226   2.422       .  S
Zr211       O217   2.404       .  S
Zr211       O218   2.418       .  S
Zr211       O219   2.381       .  S
Zr211       O220   2.374       .  S
Zr212       O231   2.437       .  S
Zr212       O224   2.435       .  S
Zr212       O225   2.458       .  S
Zr212       O218   2.405       .  S
Zr212       O219   2.393       .  S
Zr213       O215   2.437       .  S
Zr213       O237   2.436       .  S
Zr213       O239   2.393       .  S
Zr213       O217   2.380       .  S
Zr213       O220   2.387       .  S
Zr214       O240   2.436       .  S
Zr214       O241   2.435       .  S
Zr214       O216   2.437       .  S
Zr214       O217   2.402       .  S
Zr214       O218   2.396       .  S
O215        H252   0.990       .  S
O216        H247   0.990       .  S
O216        H261   0.990       .  S
O218        H244   0.965       .  S
O219       Zr229   2.377       .  S
O220       Zr229   2.373       .  S
O220        H245   0.966       .  S
C221       C4170   1.479       .  S
C222       C4201   1.474       .  S
C223       C4281   1.489       .  S
O224        H260   0.990       .  S
O225        C227   1.290       .  A
O226        C227   1.283       .  A
C227       C4190   1.487       .  S
O228       Zr229   2.438       .  S
O228        H257   0.990   1_455  S
Zr229       O232   2.436       .  S
Zr229       O233   2.439       .  S
Zr229       O234   2.410       .  S
O230        C235   1.286       .  A
O231        H248   0.990       .  S
O231        H263   0.990       .  S
O232        H249   0.990       .  S
O233        H253   0.990       .  S
O233        H262   0.990       .  S
O234        C235   1.280       .  A
C235       C4410   1.472       .  S
O236        H255   0.990       .  S
O236        H259   0.990       .  S
O237        H251   0.990       .  S
O237        H258   0.990       .  S
O238        C242   1.290       .  A
O239        C242   1.278       .  A
O240        H250   0.990       .  S
O241        H254   0.990       .  S
C242       C4141   1.483       .  S
Zr265       O266   2.443       .  S
Zr265       O267   2.440       .  S
Zr265       O268   2.435       .  S
Zr265       O271   2.463       .  S
Zr265       O273   2.391       .  S
Zr265       O274   2.379       .  S
Zr265       O275   2.416       .  S
Zr265       O276   2.397       .  S
O266        H322   0.990       .  S
O266        H330   0.991       .  S
O267        C287   1.285       .  A
O268        C289   1.285   1_556  A
O269       Zr279   2.399       .  S
O269        C288   1.280       .  A
O270       Zr278   2.447   1_554  S
O270        C289   1.287       .  A
O271        C288   1.290       .  A
O272       Zr280   2.423       .  S
O272        C287   1.282       .  A
O273       Zr278   2.404       .  S
O273       Zr280   2.380       .  S
O274       Zr279   2.385       .  S
O274       Zr280   2.374       .  S
O274        H309   0.966       .  S
O275       Zr278   2.414       .  S
O275       Zr295   2.384       .  S
O275        H312   0.963       .  S
O276       Zr279   2.384       .  S
O276       Zr295   2.391       .  S
Zr277       O302   2.440   1_455  S
Zr277       O296   2.452   1_455  S
Zr277       O304   2.463   1_455  S
Zr277       O292   2.428   1_455  S
Zr277       O283   2.404       .  S
Zr277       O284   2.418       .  S
Zr277       O285   2.378       .  S
Zr277       O286   2.379       .  S
Zr278       O297   2.438   1_556  S
Zr278       O290   2.435   1_556  S
Zr278       O291   2.463   1_455  S
Zr278       O284   2.403       .  S
Zr278       O285   2.394       .  S
Zr279       O281   2.436       .  S
Zr279       O303   2.436       .  S
Zr279       O305   2.396       .  S
Zr279       O283   2.383       .  S
Zr279       O286   2.390       .  S
Zr280       O306   2.436       .  S
Zr280       O307   2.434       .  S
Zr280       O282   2.436       .  S
Zr280       O283   2.398       .  S
Zr280       O284   2.395       .  S
O281        H318   0.990       .  S
O282        H313   0.990       .  S
O282        H327   0.990       .  S
O284        H310   0.966       .  S
O285       Zr295   2.376       .  S
O286       Zr295   2.374       .  S
O286        H311   0.966       .  S
C287       C4061   1.486       .  S
C288       C4130   1.486       .  S
C289       C4101   1.485       .  S
O290        H326   0.990       .  S
O291        C293   1.291       .  A
O292        C293   1.284       .  A
C293       C4090   1.491       .  S
O294       Zr295   2.439       .  S
O294        H323   0.990       .  S
Zr295       O298   2.437       .  S
Zr295       O299   2.439       .  S
Zr295       O300   2.416   1_455  S
O296        C301   1.287       .  A
O297        H314   0.990       .  S
O297        H329   0.990       .  S
O298        H315   0.990       .  S
O299        H319   0.990       .  S
O299        H328   0.990       .  S
O300        C301   1.281       .  A
C301       C4270   1.476       .  S
O302        H321   0.990       .  S
O302        H325   0.990       .  S
O303        H317   0.990       .  S
O303        H324   0.990       .  S
O304        C308   1.291   1_655  A
O305        C308   1.279       .  A
O306        H316   0.990       .  S
O307        H320   0.990       .  S
C308       C4330   1.484       .  S
Zr331       O332   2.443       .  S
Zr331       O333   2.450       .  S
Zr331       O334   2.440       .  S
Zr331       O337   2.457       .  S
Zr331       O339   2.389       .  S
Zr331       O340   2.382       .  S
Zr331       O341   2.417       .  S
Zr331       O342   2.399       .  S
O332        H388   0.990       .  S
O332        H396   0.991       .  S
O333        C353   1.287       .  A
O334        C355   1.285       .  A
O335       Zr345   2.386       .  S
O335        C354   1.277       .  A
O336       Zr344   2.442       .  S
O336        C355   1.287       .  A
O337        C354   1.289       .  A
O338       Zr346   2.425       .  S
O338        C353   1.283       .  A
O339       Zr344   2.404       .  S
O339       Zr346   2.380       .  S
O340       Zr345   2.389       .  S
O340       Zr346   2.375       .  S
O340        H375   0.965       .  S
O341       Zr344   2.410       .  S
O341       Zr361   2.389       .  S
O341        H378   0.962       .  S
O342       Zr345   2.389       .  S
O342       Zr361   2.386       .  S
Zr343       O368   2.442       .  S
Zr343       O362   2.448       .  S
Zr343       O370   2.467       .  S
Zr343       O358   2.427       .  S
Zr343       O349   2.405       .  S
Zr343       O350   2.416       .  S
Zr343       O351   2.386       .  S
Zr343       O352   2.376       .  S
Zr344       O363   2.437       .  S
Zr344       O356   2.435       .  S
Zr344       O357   2.468       .  S
Zr344       O350   2.397       .  S
Zr344       O351   2.391       .  S
Zr345       O347   2.438       .  S
Zr345       O369   2.436       .  S
Zr345       O371   2.401       .  S
Zr345       O349   2.380       .  S
Zr345       O352   2.385       .  S
Zr346       O372   2.435       .  S
Zr346       O373   2.437       .  S
Zr346       O348   2.438       .  S
Zr346       O349   2.404       .  S
Zr346       O350   2.389       .  S
O347        H384   0.990       .  S
O348        H379   0.990       .  S
O348        H393   0.990       .  S
O350        H376   0.965       .  S
O351       Zr361   2.378       .  S
O352       Zr361   2.368       .  S
O352        H377   0.965       .  S
C353       C4010   1.491       .  S
C354       C4050   1.472       .  S
C355       C4110   1.485       .  S
O356        H392   0.990       .  S
O357        C359   1.292       .  A
O358        C359   1.286       .  A
C359       C4030   1.493       .  S
O360       Zr361   2.440       .  S
O360        H389   0.991       .  S
Zr361       O364   2.437       .  S
Zr361       O365   2.440       .  S
Zr361       O366   2.421       .  S
O362        C367   1.287       .  A
O363        H380   0.990       .  S
O363        H395   0.990       .  S
O364        H381   0.990       .  S
O365        H385   0.990       .  S
O365        H394   0.990       .  S
O366        C367   1.282       .  A
C367       C4510   1.474       .  S
O368        H387   0.991       .  S
O368        H391   0.990       .  S
O369        H383   0.990       .  S
O369        H390   0.990       .  S
O370        C374   1.291       .  A
O371        C374   1.280       .  A
O372        H382   0.990       .  S
O373        H386   0.990       .  S
C374       C4150   1.487       .  S
Zr397       O398   2.441       .  S
Zr397       O399   2.428       .  S
Zr397       O400   2.452       .  S
Zr397       O403   2.436       .  S
Zr397       O405   2.376       .  S
Zr397       O406   2.387       .  S
Zr397       O407   2.403       .  S
Zr397       O408   2.393       .  S
O398        H454   0.990       .  S
O398        H462   0.991       .  S
O399        C419   1.283       .  A
O400        C421   1.286       .  A
O401       Zr411   2.436       .  S
O401        C420   1.286       .  A
O402       Zr410   2.404       .  S
O402        C421   1.279       .  A
O403        C420   1.286       .  A
O404       Zr412   2.439       .  S
O404        C419   1.285       .  A
O405       Zr410   2.387       .  S
O405       Zr412   2.373       .  S
O406       Zr411   2.397       .  S
O406       Zr412   2.379       .  S
O406        H441   0.966       .  S
O407       Zr410   2.391       .  S
O407       Zr427   2.396       .  S
O407        H444   0.965       .  S
O408       Zr411   2.392       .  S
O408       Zr427   2.384       .  S
Zr409       O434   2.444       .  S
Zr409       O428   2.448       .  S
Zr409       O436   2.431       .  S
Zr409       O424   2.458       .  S
Zr409       O415   2.410       .  S
Zr409       O416   2.413       .  S
Zr409       O417   2.379       .  S
Zr409       O418   2.385       .  S
Zr410       O429   2.438       .  S
Zr410       O422   2.436       .  S
Zr410       O423   2.399       .  S
Zr410       O416   2.393       .  S
Zr410       O417   2.385       .  S
Zr411       O413   2.435       .  S
Zr411       O435   2.438       .  S
Zr411       O437   2.439       .  S
Zr411       O415   2.393       .  S
Zr411       O418   2.385       .  S
Zr412       O438   2.435       .  S
Zr412       O439   2.435       .  S
Zr412       O414   2.437       .  S
Zr412       O415   2.396       .  S
Zr412       O416   2.405       .  S
O413        H450   0.990       .  S
O414        H445   0.990       .  S
O414        H459   0.990       .  S
O416        H442   0.967       .  S
O417       Zr427   2.370       .  S
O418       Zr427   2.378       .  S
O418        H443   0.964       .  S
C419       C3921   1.490       .  S
C420       C3961   1.483       .  S
C421       C3981   1.478       .  S
O422        H458   0.990       .  S
O423        C425   1.280       .  A
O424        C425   1.289       .  A
C425       C3901   1.479       .  S
O426       Zr427   2.434       .  S
O426        H455   0.990       .  S
Zr427       O430   2.436       .  S
Zr427       O431   2.436       .  S
Zr427       O432   2.412       .  S
O428        C433   1.286       .  A
O429        H446   0.990       .  S
O429        H461   0.990       .  S
O430        H447   0.990       .  S
O431        H451   0.990       .  S
O431        H460   0.989       .  S
O432        C433   1.281       .  A
C433       C3941   1.475       .  S
O434        H453   0.990       .  S
O434        H457   0.990       .  S
O435        H449   0.990       .  S
O435        H456   0.990       .  S
O436        C440   1.284       .  A
O437        C440   1.286       .  A
O438        H448   0.990       .  S
O439        H452   0.990       .  S
C440       C4161   1.472       .  S
Zr463       O464   2.441       .  S
Zr463       O465   2.406       .  S
Zr463       O466   2.458       .  S
Zr463       O469   2.429       .  S
Zr463       O471   2.375       .  S
Zr463       O472   2.396       .  S
Zr463       O473   2.399       .  S
Zr463       O474   2.393       .  S
O464        H520   0.990       .  S
O464        H528   0.991       .  S
O465        C485   1.279       .  A
O466        C487   1.288       .  A
O467       Zr477   2.440       .  S
O467        C486   1.287       .  A
O468       Zr476   2.394       .  S
O468        C487   1.278       .  A
O469        C486   1.284       .  A
O470       Zr478   2.448       .  S
O470        C485   1.286       .  A
O471       Zr476   2.381       .  S
O471       Zr478   2.375       .  S
O472       Zr477   2.396       .  S
O472       Zr478   2.384       .  S
O472        H507   0.965       .  S
O473       Zr476   2.393       .  S
O473       Zr493   2.393       .  S
O473        H510   0.967       .  S
O474       Zr477   2.393       .  S
O474       Zr493   2.379       .  S
Zr475       O500   2.443   1_455  S
Zr475       O494   2.450   1_455  S
Zr475       O502   2.424   1_455  S
Zr475       O490   2.462   1_455  S
Zr475       O481   2.418       .  S
Zr475       O482   2.411       .  S
Zr475       O483   2.374       .  S
Zr475       O484   2.389       .  S
Zr476       O495   2.436       .  S
Zr476       O488   2.435       .  S
Zr476       O489   2.386       .  S
Zr476       O482   2.385       .  S
Zr476       O483   2.384       .  S
Zr477       O479   2.436       .  S
Zr477       O501   2.437       .  S
Zr477       O503   2.445   1_455  S
Zr477       O481   2.393       .  S
Zr477       O484   2.391       .  S
Zr478       O504   2.436       .  S
Zr478       O505   2.436       .  S
Zr478       O480   2.436       .  S
Zr478       O481   2.404       .  S
Zr478       O482   2.409       .  S
O479        H516   0.990       .  S
O480        H511   0.990       .  S
O480        H525   0.990       .  S
O482        H508   0.969       .  S
O483       Zr493   2.371       .  S
O484       Zr493   2.377       .  S
O484        H509   0.965       .  S
C485       C3821   1.487       .  S
C486       C3970   1.482       .  S
C487       C3861   1.481       .  S
O488        H524   0.990       .  S
O489        C491   1.277       .  A
O490        C491   1.289   1_655  A
C491       C3801   1.484       .  S
O492       Zr493   2.434       .  S
O492        H521   0.990       .  S
Zr493       O496   2.434       .  S
Zr493       O497   2.437       .  S
Zr493       O498   2.411       .  S
O494        C499   1.286       .  A
O495        H512   0.990       .  S
O495        H527   0.990       .  S
O496        H513   0.990       .  S
O497        H517   0.990       .  S
O497        H526   0.990       .  S
O498        C499   1.281   1_455  A
C499       C3881   1.477       .  S
O500        H519   0.990       .  S
O500        H523   0.990       .  S
O501        H515   0.990       .  S
O501        H522   0.990       .  S
O502        C506   1.284       .  A
O503        C506   1.287       .  A
O504        H514   0.990       .  S
O505        H518   0.990       .  S
C506       C3841   1.483       .  S
Zr529       O530   2.441       .  S
Zr529       O531   2.428       .  S
Zr529       O532   2.451       .  S
Zr529       O535   2.429       .  S
Zr529       O537   2.376       .  S
Zr529       O538   2.387       .  S
Zr529       O539   2.404       .  S
Zr529       O540   2.394       .  S
O530        H586   0.990       .  S
O530        H594   0.991       .  S
O531        C551   1.282       .  A
O532        C553   1.286       .  A
O533       Zr543   2.435       .  S
O533        C552   1.286       .  A
O534       Zr542   2.399       .  S
O534        C553   1.279       .  A
O535        C552   1.285       .  A
O536       Zr544   2.446       .  S
O536        C551   1.286       .  A
O537       Zr542   2.389       .  S
O537       Zr544   2.376       .  S
O538       Zr543   2.404       .  S
O538       Zr544   2.379       .  S
O538        H573   0.966       .  S
O539       Zr542   2.394       .  S
O539       Zr559   2.395       .  S
O539        H576   0.963       .  S
O540       Zr543   2.394       .  S
O540       Zr559   2.383       .  S
Zr541       O566   2.442       .  S
Zr541       O560   2.445       .  S
Zr541       O568   2.422       .  S
Zr541       O556   2.450       .  S
Zr541       O547   2.405       .  S
Zr541       O548   2.412       .  S
Zr541       O549   2.372       .  S
Zr541       O550   2.383       .  S
Zr542       O561   2.438       .  S
Zr542       O554   2.434       .  S
Zr542       O555   2.401       .  S
Zr542       O548   2.392       .  S
Zr542       O549   2.382       .  S
Zr543       O545   2.437       .  S
Zr543       O567   2.437       .  S
Zr543       O569   2.452       .  S
Zr543       O547   2.387       .  S
Zr543       O550   2.387       .  S
Zr544       O570   2.437       .  S
Zr544       O571   2.435       .  S
Zr544       O546   2.435       .  S
Zr544       O547   2.396       .  S
Zr544       O548   2.418       .  S
O545        H582   0.990       .  S
O546        H577   0.990       .  S
O546        H591   0.990       .  S
O548        H574   0.965       .  S
O549       Zr559   2.365       .  S
O550       Zr559   2.383       .  S
O550        H575   0.966       .  S
C551       C3750   1.493       .  S
C552       C3790   1.478       .  S
C553       C3770   1.478       .  S
O554        H590   0.990       .  S
O555        C557   1.279       .  A
O556        C557   1.287       .  A
C557       C3721   1.474       .  S
O558       Zr559   2.440       .  S
O558        H587   0.990       .  S
Zr559       O562   2.438       .  S
Zr559       O563   2.439       .  S
Zr559       O564   2.419       .  S
O560        C565   1.286       .  A
O561        H578   0.990       .  S
O561        H593   0.990       .  S
O562        H579   0.990       .  S
O563        H583   0.990       .  S
O563        H592   0.990       .  S
O564        C565   1.282       .  A
C565       C3950   1.478       .  S
O566        H585   0.990       .  S
O566        H589   0.990       .  S
O567        H581   0.990       .  S
O567        H588   0.990       .  S
O568        C572   1.284       .  A
O569        C572   1.289       .  A
O570        H580   0.990       .  S
O571        H584   0.990       .  S
C572       C4221   1.488       .  S
Zr595       O596   2.442       .  S
Zr595       O597   2.428       .  S
Zr595       O598   2.450       .  S
Zr595       O601   2.426       .  S
Zr595       O603   2.374       .  S
Zr595       O604   2.392       .  S
Zr595       O605   2.404       .  S
Zr595       O606   2.395       .  S
O596        H652   0.990       .  S
O596        H660   0.991       .  S
O597        C617   1.282       .  A
O598        C619   1.286       .  A
O599       Zr609   2.438   1_556  S
O599        C618   1.286       .  A
O600       Zr608   2.388       .  S
O600        C619   1.276       .  A
O601        C618   1.284   1_554  A
O602       Zr610   2.433       .  S
O602        C617   1.283       .  A
O603       Zr608   2.378       .  S
O603       Zr610   2.373       .  S
O604       Zr609   2.400       .  S
O604       Zr610   2.382       .  S
O604        H639   0.966       .  S
O605       Zr608   2.388       .  S
O605       Zr625   2.393       .  S
O605        H642   0.962       .  S
O606       Zr609   2.392       .  S
O606       Zr625   2.383       .  S
Zr607       O632   2.438   1_655  S
Zr607       O626   2.458       .  S
Zr607       O634   2.426   1_655  S
Zr607       O622   2.479       .  S
Zr607       O613   2.413       .  S
Zr607       O614   2.410       .  S
Zr607       O615   2.374       .  S
Zr607       O616   2.386       .  S
Zr608       O627   2.437       .  S
Zr608       O620   2.435       .  S
Zr608       O621   2.369       .  S
Zr608       O614   2.390       .  S
Zr608       O615   2.390       .  S
Zr609       O611   2.435   1_554  S
Zr609       O633   2.439   1_554  S
Zr609       O635   2.444       .  S
Zr609       O613   2.392       .  S
Zr609       O616   2.392       .  S
Zr610       O636   2.436       .  S
Zr610       O637   2.435       .  S
Zr610       O612   2.438       .  S
Zr610       O613   2.398       .  S
Zr610       O614   2.406       .  S
O611        H648   0.990       .  S
O612        H643   0.990       .  S
O612        H657   0.990       .  S
O614        H640   0.968       .  S
O615       Zr625   2.372       .  S
O616       Zr625   2.380       .  S
O616        H641   0.966       .  S
C617       C3641   1.488       .  S
C618       C3781   1.478       .  S
C619       C3690   1.475       .  S
O620        H656   0.990       .  S
O621        C623   1.273       .  A
O622        C623   1.293       .  A
C623       C3810   1.480       .  S
O624       Zr625   2.439       .  S
O624        H653   0.991       .  S
Zr625       O628   2.437       .  S
Zr625       O629   2.441       .  S
Zr625       O630   2.413       .  S
O626        C631   1.288       .  A
O627        H644   0.990       .  S
O627        H659   0.990       .  S
O628        H645   0.990       .  S
O629        H649   0.990       .  S
O629        H658   0.990       .  S
O630        C631   1.281       .  A
C631       C3701   1.481   1_655  S
O632        H651   0.990   1_455  S
O632        H655   0.990       .  S
O633        H647   0.990       .  S
O633        H654   0.990       .  S
O634        C638   1.285       .  A
O635        C638   1.287   1_655  A
O636        H646   0.990       .  S
O637        H650   0.990       .  S
C638       C3670   1.487       .  S
Zr661       O662   2.440       .  S
Zr661       O663   2.430       .  S
Zr661       O664   2.466       .  S
Zr661       O667   2.429       .  S
Zr661       O669   2.371       .  S
Zr661       O670   2.395       .  S
Zr661       O671   2.401       .  S
Zr661       O672   2.401       .  S
O662        H718   0.990       .  S
O662        H726   0.990       .  S
O663        C683   1.283       .  A
O664        C685   1.289       .  A
O665       Zr675   2.441       .  S
O665        C684   1.287       .  A
O666       Zr674   2.383       .  S
O666        C685   1.276       .  A
O667        C684   1.284       .  A
O668       Zr676   2.445       .  S
O668        C683   1.286       .  A
O669       Zr674   2.380       .  S
O669       Zr676   2.372       .  S
O670       Zr675   2.403       .  S
O670       Zr676   2.381       .  S
O670        H705   0.967       .  S
O671       Zr674   2.391       .  S
O671       Zr691   2.397       .  S
O671        H708   0.962       .  S
O672       Zr675   2.394       .  S
O672       Zr691   2.389       .  S
Zr673       O698   2.439       .  S
Zr673       O692   2.459       .  S
Zr673       O700   2.418       .  S
Zr673       O688   2.462       .  S
Zr673       O679   2.417       .  S
Zr673       O680   2.413       .  S
Zr673       O681   2.367       .  S
Zr673       O682   2.387       .  S
Zr674       O693   2.437       .  S
Zr674       O686   2.434       .  S
Zr674       O687   2.370       .  S
Zr674       O680   2.387       .  S
Zr674       O681   2.387       .  S
Zr675       O677   2.435       .  S
Zr675       O699   2.439       .  S
Zr675       O701   2.454       .  S
Zr675       O679   2.395       .  S
Zr675       O682   2.394       .  S
Zr676       O702   2.435       .  S
Zr676       O703   2.437       .  S
Zr676       O678   2.439       .  S
Zr676       O679   2.405       .  S
Zr676       O680   2.412       .  S
O677        H714   0.990       .  S
O678        H709   0.990       .  S
O678        H723   0.990       .  S
O680        H706   0.967       .  S
O681       Zr691   2.367       .  S
O682       Zr691   2.381       .  S
O682        H707   0.965       .  S
C683       C4021   1.492       .  S
C684       C3621   1.483       .  S
C685       C4310   1.481       .  S
O686        H722   0.990       .  S
O687        C689   1.273       .  A
O688        C689   1.290       .  A
C689       C3910   1.478   1_554  S
O690       Zr691   2.438       .  S
O690        H719   0.991       .  S
Zr691       O694   2.438       .  S
Zr691       O695   2.440       .  S
Zr691       O696   2.420       .  S
O692        C697   1.287       .  A
O693        H710   0.990       .  S
O693        H725   0.990   1_554  S
O694        H711   0.990       .  S
O695        H715   0.990       .  S
O695        H724   0.990       .  S
O696        C697   1.282       .  A
C697       C3710   1.484       .  S
O698        H717   0.990       .  S
O698        H721   0.990       .  S
O699        H713   0.990       .  S
O699        H720   0.990       .  S
O700        C704   1.283       .  A
O701        C704   1.289       .  A
O702        H712   0.990       .  S
O703        H716   0.990       .  S
C704       C3610   1.488       .  S
Zr727       O728   2.440       .  S
Zr727       O729   2.418       .  S
Zr727       O730   2.451       .  S
Zr727       O733   2.426       .  S
Zr727       O735   2.373       .  S
Zr727       O736   2.392       .  S
Zr727       O737   2.403       .  S
Zr727       O738   2.394       .  S
O728        H784   0.990       .  S
O728        H792   0.991       .  S
O729        C749   1.281       .  A
O730        C751   1.286       .  A
O731       Zr741   2.430       .  S
O731        C750   1.285       .  A
O732       Zr740   2.389       .  S
O732        C751   1.277       .  A
O733        C750   1.284       .  A
O734       Zr742   2.451       .  S
O734        C749   1.286       .  A
O735       Zr740   2.382       .  S
O735       Zr742   2.364       .  S
O736       Zr741   2.403       .  S
O736       Zr742   2.382       .  S
O736        H771   0.966       .  S
O737       Zr740   2.390       .  S
O737       Zr757   2.391       .  S
O737        H774   0.967       .  S
O738       Zr741   2.387       .  S
O738       Zr757   2.377       .  S
Zr739       O764   2.450       .  S
Zr739       O758   2.465       .  S
Zr739       O766   2.427       .  S
Zr739       O754   2.466       .  S
Zr739       O745   2.416       .  S
Zr739       O746   2.413       .  S
Zr739       O747   2.373       .  S
Zr739       O748   2.388       .  S
Zr740       O759   2.439       .  S
Zr740       O752   2.435       .  S
Zr740       O753   2.387       .  S
Zr740       O746   2.386       .  S
Zr740       O747   2.380       .  S
Zr741       O743   2.436       .  S
Zr741       O765   2.436       .  S
Zr741       O767   2.448       .  S
Zr741       O745   2.390       .  S
Zr741       O748   2.384       .  S
Zr742       O768   2.436       .  S
Zr742       O769   2.435       .  S
Zr742       O744   2.438       .  S
Zr742       O745   2.405       .  S
Zr742       O746   2.413       .  S
O743        H780   0.990       .  S
O744        H775   0.990       .  S
O744        H789   0.990       .  S
O746        H772   0.966       .  S
O747       Zr757   2.369       .  S
O748       Zr757   2.387       .  S
O748        H773   0.966       .  S
C749       C4470   1.491       .  S
C750       C3630   1.479       .  S
C751       C4210   1.475       .  S
O752        H788   0.990       .  S
O753        C755   1.277       .  A
O754        C755   1.290       .  A
C755       C3730   1.481       .  S
O756       Zr757   2.438       .  S
O756        H785   0.990       .  S
Zr757       O760   2.436       .  S
Zr757       O761   2.438       .  S
Zr757       O762   2.404       .  S
O758        C763   1.290       .  A
O759        H776   0.990       .  S
O759        H791   0.990       .  S
O760        H777   0.990       .  S
O761        H781   0.990       .  S
O761        H790   0.990       .  S
O762        C763   1.280       .  A
C763       C3890   1.482       .  S
O764        H783   0.990       .  S
O764        H787   0.989       .  S
O765        H779   0.989       .  S
O765        H786   0.990       .  S
O766        C770   1.284       .  A
O767        C770   1.288       .  A
O768        H778   0.990       .  S
O769        H782   0.990       .  S
C770       C3590   1.483       .  S
Zr793       O794   2.443       .  S
Zr793       O795   2.435       .  S
Zr793       O796   2.438       .  S
Zr793       O799   2.461       .  S
Zr793       O801   2.393       .  S
Zr793       O802   2.377       .  S
Zr793       O803   2.415       .  S
Zr793       O804   2.396       .  S
O794        H850   0.990       .  S
O794        H858   0.991       .  S
O795        C815   1.284       .  A
O796        C817   1.285       .  A
O797       Zr807   2.380       .  S
O797        C816   1.276       .  A
O798       Zr806   2.442       .  S
O798        C817   1.287       .  A
O799        C816   1.289       .  A
O800       Zr808   2.431       .  S
O800        C815   1.284       .  A
O801       Zr806   2.401       .  S
O801       Zr808   2.379       .  S
O802       Zr807   2.382       .  S
O802       Zr808   2.371       .  S
O802        H837   0.965       .  S
O803       Zr806   2.408       .  S
O803       Zr823   2.386       .  S
O803        H840   0.961       .  S
O804       Zr807   2.379       .  S
O804       Zr823   2.390       .  S
Zr805       O830   2.440       .  S
Zr805       O824   2.458       .  S
Zr805       O832   2.463       .  S
Zr805       O820   2.423       .  S
Zr805       O811   2.406       .  S
Zr805       O812   2.420       .  S
Zr805       O813   2.379       .  S
Zr805       O814   2.378       .  S
Zr806       O825   2.435       .  S
Zr806       O818   2.435       .  S
Zr806       O819   2.456       .  S
Zr806       O812   2.400       .  S
Zr806       O813   2.389       .  S
Zr807       O809   2.435       .  S
Zr807       O831   2.439       .  S
Zr807       O833   2.380       .  S
Zr807       O811   2.379       .  S
Zr807       O814   2.389       .  S
Zr808       O834   2.436       .  S
Zr808       O835   2.436       .  S
Zr808       O810   2.437       .  S
Zr808       O811   2.402       .  S
Zr808       O812   2.392       .  S
O809        H846   0.990       .  S
O810        H841   0.990       .  S
O810        H855   0.990       .  S
O812        H838   0.964       .  S
O813       Zr823   2.376       .  S
O814       Zr823   2.375       .  S
O814        H839   0.966       .  S
C815       C3581   1.484       .  S
C816       C3681   1.478       .  S
C817       C3541   1.483       .  S
O818        H854   0.990       .  S
O819        C821   1.290       .  A
O820        C821   1.283       .  A
C821       C3530   1.486       .  S
O822       Zr823   2.440       .  S
O822        H851   0.990       .  S
Zr823       O826   2.440       .  S
Zr823       O827   2.439       .  S
Zr823       O828   2.419       .  S
O824        C829   1.288       .  A
O825        H842   0.990       .  S
O825        H857   0.990       .  S
O826        H843   0.990       .  S
O827        H847   0.990       .  S
O827        H856   0.990       .  S
O828        C829   1.282       .  A
C829       C3561   1.483       .  S
O830        H849   0.990       .  S
O830        H853   0.990       .  S
O831        H845   0.990       .  S
O831        H852   0.990       .  S
O832        C836   1.290       .  A
O833        C836   1.276       .  A
O834        H844   0.990       .  S
O835        H848   0.990       .  S
C836       C3510   1.479       .  S
Zr859       O860   2.442       .  S
Zr859       O861   2.443       .  S
Zr859       O862   2.432       .  S
Zr859       O865   2.450       .  S
Zr859       O867   2.388       .  S
Zr859       O868   2.378       .  S
Zr859       O869   2.415       .  S
Zr859       O870   2.401       .  S
O860        H916   0.990       .  S
O860        H924   0.990       .  S
O861        C881   1.285       .  A
O862        C883   1.283       .  A
O863       Zr873   2.392       .  S
O863        C882   1.277       .  A
O864       Zr872   2.448       .  S
O864        C883   1.288       .  A
O865        C882   1.287       .  A
O866       Zr874   2.421       .  S
O866        C881   1.282       .  A
O867       Zr872   2.401       .  S
O867       Zr874   2.381       .  S
O868       Zr873   2.382       .  S
O868       Zr874   2.376       .  S
O868        H903   0.965       .  S
O869       Zr872   2.407       .  S
O869       Zr889   2.384       .  S
O869        H906   0.964       .  S
O870       Zr873   2.384       .  S
O870       Zr889   2.393       .  S
Zr871       O896   2.438       .  S
Zr871       O890   2.450       .  S
Zr871       O898   2.480       .  S
Zr871       O886   2.427       .  S
Zr871       O877   2.402       .  S
Zr871       O878   2.422       .  S
Zr871       O879   2.384       .  S
Zr871       O880   2.378       .  S
Zr872       O891   2.437       .  S
Zr872       O884   2.435       .  S
Zr872       O885   2.455       .  S
Zr872       O878   2.404       .  S
Zr872       O879   2.393       .  S
Zr873       O875   2.437       .  S
Zr873       O897   2.436       .  S
Zr873       O899   2.388       .  S
Zr873       O877   2.378       .  S
Zr873       O880   2.392       .  S
Zr874       O900   2.434       .  S
Zr874       O901   2.435       .  S
Zr874       O876   2.437       .  S
Zr874       O877   2.401       .  S
Zr874       O878   2.390       .  S
O875        H912   0.990       .  S
O876        H907   0.990       .  S
O876        H921   0.990       .  S
O878        H904   0.965       .  S
O879       Zr889   2.368       .  S
O880       Zr889   2.374       .  S
O880        H905   0.966       .  S
C881       C3850   1.488       .  S
C882       C3761   1.477       .  S
C883       C3550   1.482       .  S
O884        H920   0.990       .  S
O885        C887   1.290       .  A
O886        C887   1.285       .  A
C887       C3461   1.487       .  S
O888       Zr889   2.435       .  S
O888        H917   0.990       .  S
Zr889       O892   2.437       .  S
Zr889       O893   2.437       .  S
Zr889       O894   2.421       .  S
O890        C895   1.286       .  A
O891        H908   0.990       .  S
O891        H923   0.990       .  S
O892        H909   0.990       .  S
O893        H913   0.990       .  S
O893        H922   0.990       .  S
O894        C895   1.281       .  A
C895       C3481   1.472       .  S
O896        H915   0.990       .  S
O896        H919   0.990       .  S
O897        H911   0.990       .  S
O897        H918   0.990       .  S
O898        C902   1.294       .  A
O899        C902   1.276       .  A
O900        H910   0.990       .  S
O901        H914   0.990       .  S
C902       C3441   1.487       .  S
Zr925       O926   2.443       .  S
Zr925       O927   2.441       .  S
Zr925       O928   2.432       .  S
Zr925       O931   2.457       .  S
Zr925       O933   2.391       .  S
Zr925       O934   2.377       .  S
Zr925       O935   2.416       .  S
Zr925       O936   2.400       .  S
O926        H982   0.990       .  S
O926        H990   0.991       .  S
O927        C947   1.285       .  A
O928        C949   1.284   1_556  A
O929       Zr939   2.392       .  S
O929        C948   1.278       .  A
O930       Zr938   2.447   1_554  S
O930        C949   1.287       .  A
O931        C948   1.289       .  A
O932       Zr940   2.431       .  S
O932        C947   1.284       .  A
O933       Zr938   2.400       .  S
O933       Zr940   2.383       .  S
O934       Zr939   2.381       .  S
O934       Zr940   2.374       .  S
O934        H969   0.966       .  S
O935       Zr938   2.409       .  S
O935       Zr955   2.384       .  S
O935        H972   0.963       .  S
O936       Zr939   2.385       .  S
O936       Zr955   2.391       .  S
Zr937       O962   2.439       .  S
Zr937       O956   2.453       .  S
Zr937       O964   2.473       .  S
Zr937       O952   2.427       .  S
Zr937       O943   2.400       .  S
Zr937       O944   2.418       .  S
Zr937       O945   2.387       .  S
Zr937       O946   2.374       .  S
Zr938       O957   2.437   1_556  S
Zr938       O950   2.435   1_556  S
Zr938       O951   2.449       .  S
Zr938       O944   2.402       .  S
Zr938       O945   2.399       .  S
Zr939       O941   2.436       .  S
Zr939       O963   2.434       .  S
Zr939       O965   2.389       .  S
Zr939       O943   2.381       .  S
Zr939       O946   2.384       .  S
Zr940       O966   2.435       .  S
Zr940       O967   2.435       .  S
Zr940       O942   2.437       .  S
Zr940       O943   2.399       .  S
Zr940       O944   2.392       .  S
O941        H978   0.990       .  S
O942        H973   0.990       .  S
O942        H987   0.990       .  S
O944        H970   0.964       .  S
O945       Zr955   2.378       .  S
O946       Zr955   2.368       .  S
O946        H971   0.965       .  S
C947       C3370   1.484       .  S
C948       C3421   1.481       .  S
C949       C3401   1.484       .  S
O950        H986   0.990       .  S
O951        C953   1.288       .  A
O952        C953   1.284       .  A
C953       C3650   1.485       .  S
O954       Zr955   2.438       .  S
O954        H983   0.991       .  S
Zr955       O958   2.438       .  S
Zr955       O959   2.439       .  S
Zr955       O960   2.404       .  S
O956        C961   1.286       .  A
O957        H974   0.990       .  S
O957        H989   0.990       .  S
O958        H975   0.990       .  S
O959        H979   0.990       .  S
O959        H988   0.990       .  S
O960        C961   1.279       .  A
C961       C3381   1.473       .  S
O962        H981   0.990       .  S
O962        H985   0.990       .  S
O963        H977   0.990       .  S
O963        H984   0.990       .  S
O964        C968   1.292       .  A
O965        C968   1.278       .  A
O966        H976   0.990       .  S
O967        H980   0.990       .  S
C968       C3450   1.487       .  S
Zr991       O992   2.444       .  S
Zr991       O993   2.441       .  S
Zr991       O994   2.445       .  S
Zr991       O997   2.460       .  S
Zr991       O999   2.391       .  S
Zr991      O1000   2.383       .  S
Zr991      O1001   2.419       .  S
Zr991      O1002   2.400       .  S
O992       H1048   0.990       .  S
O992       H1056   0.991       .  S
O993       C1013   1.284       .  A
O994       C1015   1.285       .  A
O995      Zr1005   2.385       .  S
O995       C1014   1.276       .  A
O996      Zr1004   2.441       .  S
O996       C1015   1.287       .  A
O997       C1014   1.289       .  A
O998      Zr1006   2.411       .  S
O998       C1013   1.280       .  A
O999      Zr1004   2.399       .  S
O999      Zr1006   2.383       .  S
O1000     Zr1005   2.382       .  S
O1000     Zr1006   2.378       .  S
O1000      H1035   0.965       .  S
O1001     Zr1004   2.409       .  S
O1001     Zr1021   2.388       .  S
O1001      H1038   0.961       .  S
O1002     Zr1005   2.383       .  S
O1002     Zr1021   2.393       .  S
Zr1003     O1028   2.439       .  S
Zr1003     O1022   2.455       .  S
Zr1003     O1030   2.478       .  S
Zr1003     O1018   2.434       .  S
Zr1003     O1009   2.406       .  S
Zr1003     O1010   2.420       .  S
Zr1003     O1011   2.385       .  S
Zr1003     O1012   2.377       .  S
Zr1004     O1023   2.435       .  S
Zr1004     O1016   2.436       .  S
Zr1004     O1017   2.450       .  S
Zr1004     O1010   2.406       .  S
Zr1004     O1011   2.397       .  S
Zr1005     O1007   2.436       .  S
Zr1005     O1029   2.437       .  S
Zr1005     O1031   2.382       .  S
Zr1005     O1009   2.385       .  S
Zr1005     O1012   2.389       .  S
Zr1006     O1032   2.436       .  S
Zr1006     O1033   2.435       .  S
Zr1006     O1008   2.439       .  S
Zr1006     O1009   2.399       .  S
Zr1006     O1010   2.385       .  S
O1007      H1044   0.990       .  S
O1008      H1039   0.990       .  S
O1008      H1053   0.990       .  S
O1010      H1036   0.963       .  S
O1011     Zr1021   2.377       .  S
O1012     Zr1021   2.370       .  S
O1012      H1037   0.965       .  S
C1013      C3330   1.476       .  S
C1014      C3341   1.478       .  S
C1015      C3410   1.482       .  S
O1016      H1052   0.990       .  S
O1017      C1019   1.288       .  A
O1018      C1019   1.286       .  A
C1019      C3301   1.487       .  S
O1020     Zr1021   2.440       .  S
O1020      H1049   0.990       .  S
Zr1021     O1024   2.439       .  S
Zr1021     O1025   2.440       .  S
Zr1021     O1026   2.419       .  S
O1022      C1027   1.287       .  A
O1023      H1040   0.990       .  S
O1023      H1055   0.990       .  S
O1024      H1041   0.990       .  S
O1025      H1045   0.990       .  S
O1025      H1054   0.990       .  S
O1026      C1027   1.282       .  A
C1027      C3570   1.482       .  S
O1028      H1047   0.990       .  S
O1028      H1051   0.990       .  S
O1029      H1043   0.990       .  S
O1029      H1050   0.990       .  S
O1030      C1034   1.294       .  A
O1031      C1034   1.276       .  A
O1032      H1042   0.990       .  S
O1033      H1046   0.990       .  S
C1034      C3290   1.487       .  S
Zr1057     O1058   2.444       .  S
Zr1057     O1059   2.449       .  S
Zr1057     O1060   2.443       .  S
Zr1057     O1063   2.459       .  S
Zr1057     O1065   2.390       .  S
Zr1057     O1066   2.382       .  S
Zr1057     O1067   2.422       .  S
Zr1057     O1068   2.401       .  S
O1058      H1114   0.990       .  S
O1058      H1122   0.991       .  S
O1059      C1079   1.286       .  A
O1060      C1081   1.285       .  A
O1061     Zr1071   2.392       .  S
O1061      C1080   1.278       .  A
O1062     Zr1070   2.451       .  S
O1062      C1081   1.289       .  A
O1063      C1080   1.289       .  A
O1064     Zr1072   2.440       .  S
O1064      C1079   1.285       .  A
O1065     Zr1070   2.405       .  S
O1065     Zr1072   2.378       .  S
O1066     Zr1071   2.383       .  S
O1066     Zr1072   2.376       .  S
O1066      H1101   0.965       .  S
O1067     Zr1070   2.414       .  S
O1067     Zr1087   2.389       .  S
O1067      H1104   0.962       .  S
O1068     Zr1071   2.388       .  S
O1068     Zr1087   2.393       .  S
Zr1069     O1094   2.439       .  S
Zr1069     O1088   2.444       .  S
Zr1069     O1096   2.459       .  S
Zr1069     O1084   2.420       .  S
Zr1069     O1075   2.407       .  S
Zr1069     O1076   2.417       .  S
Zr1069     O1077   2.380       .  S
Zr1069     O1078   2.375       .  S
Zr1070     O1089   2.438       .  S
Zr1070     O1082   2.436       .  S
Zr1070     O1083   2.477       .  S
Zr1070     O1076   2.398       .  S
Zr1070     O1077   2.391       .  S
Zr1071     O1073   2.437       .  S
Zr1071     O1095   2.437       .  S
Zr1071     O1097   2.393       .  S
Zr1071     O1075   2.382       .  S
Zr1071     O1078   2.388       .  S
Zr1072     O1098   2.436       .  S
Zr1072     O1099   2.435       .  S
Zr1072     O1074   2.438       .  S
Zr1072     O1075   2.407       .  S
Zr1072     O1076   2.396       .  S
O1073      H1110   0.990       .  S
O1074      H1105   0.990       .  S
O1074      H1119   0.990       .  S
O1076      H1102   0.965       .  S
O1077     Zr1087   2.375       .  S
O1078     Zr1087   2.369       .  S
O1078      H1103   0.965       .  S
C1079      C3201   1.494       .  S
C1080      C3250   1.480       .  S
C1081      C3261   1.490       .  S
O1082      H1118   0.990       .  S
O1083      C1085   1.293       .  A
O1084      C1085   1.283       .  A
C1085      C3221   1.491       .  S
O1086     Zr1087   2.438       .  S
O1086      H1115   0.990       .  S
Zr1087     O1090   2.436       .  S
Zr1087     O1091   2.441       .  S
Zr1087     O1092   2.421       .  S
O1088      C1093   1.285       .  A
O1089      H1106   0.990       .  S
O1089      H1121   0.990       .  S
O1090      H1107   0.990       .  S
O1091      H1111   0.990       .  S
O1091      H1120   0.990       .  S
O1092      C1093   1.282       .  A
C1093      C3490   1.477       .  S
O1094      H1113   0.990       .  S
O1094      H1117   0.991       .  S
O1095      H1109   0.990       .  S
O1095      H1116   0.990       .  S
O1096      C1100   1.289       .  A
O1097      C1100   1.278       .  A
O1098      H1108   0.990       .  S
O1099      H1112   0.990       .  S
C1100      C3281   1.482       .  S
Zr1123     O1124   2.441       .  S
Zr1123     O1125   2.444       .  S
Zr1123     O1126   2.453       .  S
Zr1123     O1129   2.466       .  S
Zr1123     O1131   2.394       .  S
Zr1123     O1132   2.384       .  S
Zr1123     O1133   2.414       .  S
Zr1123     O1134   2.395       .  S
O1124      H1180   0.990       .  S
O1124      H1188   0.991       .  S
O1125      C1145   1.286       .  A
O1126      C1147   1.287       .  A
O1127     Zr1137   2.385       .  S
O1127      C1146   1.277       .  A
O1128     Zr1136   2.453       .  S
O1128      C1147   1.289       .  A
O1129      C1146   1.290       .  A
O1130     Zr1138   2.425       .  S
O1130      C1145   1.283       .  A
O1131     Zr1136   2.404       .  S
O1131     Zr1138   2.386       .  S
O1132     Zr1137   2.382       .  S
O1132     Zr1138   2.378       .  S
O1132      H1167   0.966       .  S
O1133     Zr1136   2.411       .  S
O1133     Zr1153   2.383       .  S
O1133      H1170   0.961       .  S
O1134     Zr1137   2.382       .  S
O1134     Zr1153   2.386       .  S
Zr1135     O1160   2.440       .  S
Zr1135     O1154   2.456       .  S
Zr1135     O1162   2.455       .  S
Zr1135     O1150   2.425       .  S
Zr1135     O1141   2.409       .  S
Zr1135     O1142   2.420       .  S
Zr1135     O1143   2.386       .  S
Zr1135     O1144   2.376       .  S
Zr1136     O1155   2.436       .  S
Zr1136     O1148   2.436       .  S
Zr1136     O1149   2.456       .  S
Zr1136     O1142   2.403       .  S
Zr1136     O1143   2.402       .  S
Zr1137     O1139   2.437       .  S
Zr1137     O1161   2.436       .  S
Zr1137     O1163   2.387       .  S
Zr1137     O1141   2.380       .  S
Zr1137     O1144   2.388       .  S
Zr1138     O1164   2.436       .  S
Zr1138     O1165   2.438       .  S
Zr1138     O1140   2.437       .  S
Zr1138     O1141   2.402       .  S
Zr1138     O1142   2.390       .  S
O1139      H1176   0.990   1_556  S
O1140      H1171   0.990       .  S
O1140      H1185   0.990       .  S
O1142      H1168   0.965       .  S
O1143     Zr1153   2.379       .  S
O1144     Zr1153   2.370       .  S
O1144      H1169   0.966       .  S
C1145      C3170   1.486       .  S
C1146      C3181   1.482       .  S
C1147      C3270   1.495       .  S
O1148      H1184   0.990       .  S
O1149      C1151   1.290       .  A
O1150      C1151   1.284       .  A
C1151      C3741   1.483       .  S
O1152     Zr1153   2.438       .  S
O1152      H1181   0.991       .  S
Zr1153     O1156   2.439       .  S
Zr1153     O1157   2.440       .  S
Zr1153     O1158   2.406       .  S
O1154      C1159   1.287       .  A
O1155      H1172   0.990       .  S
O1155      H1187   0.990       .  S
O1156      H1173   0.990       .  S
O1157      H1177   0.990       .  S
O1157      H1186   0.990       .  S
O1158      C1159   1.280       .  A
C1159      C3390   1.481       .  S
O1160      H1179   0.990       .  S
O1160      H1183   0.990       .  S
O1161      H1175   0.990       .  S
O1161      H1182   0.990       .  S
O1162      C1166   1.288       .  A
O1163      C1166   1.277       .  A
O1164      H1174   0.990       .  S
O1165      H1178   0.990       .  S
C1166      C3501   1.477   1_556  S
Zr1189     O1190   2.443       .  S
Zr1189     O1191   2.427       .  S
Zr1189     O1192   2.454       .  S
Zr1189     O1195   2.410       .  S
Zr1189     O1197   2.370       .  S
Zr1189     O1198   2.392       .  S
Zr1189     O1199   2.403       .  S
Zr1189     O1200   2.399       .  S
O1190      H1246   0.990       .  S
O1190      H1254   0.991       .  S
O1191      C1211   1.282       .  A
O1192      C1213   1.285       .  A
O1193     Zr1203   2.451       .  S
O1193      C1212   1.287       .  A
O1194     Zr1202   2.404       .  S
O1194      C1213   1.279       .  A
O1195      C1212   1.281       .  A
O1196     Zr1204   2.441       .  S
O1196      C1211   1.285       .  A
O1197     Zr1202   2.383       .  S
O1197     Zr1204   2.377       .  S
O1198     Zr1203   2.400       .  S
O1198     Zr1204   2.383       .  S
O1198      H1233   0.967       .  S
O1199     Zr1202   2.385       .  S
O1199     Zr1219   2.402       .  S
O1199      H1236   0.964       .  S
O1200     Zr1203   2.391       .  S
O1200     Zr1219   2.384       .  S
Zr1201     O1226   2.441       .  S
Zr1201     O1220   2.469       .  S
Zr1201     O1228   2.439       .  S
Zr1201     O1216   2.465       .  S
Zr1201     O1207   2.415       .  S
Zr1201     O1208   2.415       .  S
Zr1201     O1209   2.379       .  S
Zr1201     O1210   2.388       .  S
Zr1202     O1221   2.437       .  S
Zr1202     O1214   2.436       .  S
Zr1202     O1215   2.376       .  S
Zr1202     O1208   2.395       .  S
Zr1202     O1209   2.394       .  S
Zr1203     O1205   2.435       .  S
Zr1203     O1227   2.438       .  S
Zr1203     O1229   2.452       .  S
Zr1203     O1207   2.398       .  S
Zr1203     O1210   2.396       .  S
Zr1204     O1230   2.435       .  S
Zr1204     O1231   2.436       .  S
Zr1204     O1206   2.437       .  S
Zr1204     O1207   2.402       .  S
Zr1204     O1208   2.403       .  S
O1205      H1242   0.990       .  S
O1206      H1237   0.990       .  S
O1206      H1251   0.990       .  S
O1208      H1234   0.968       .  S
O1209     Zr1219   2.372       .  S
O1210     Zr1219   2.383       .  S
O1210      H1235   0.965       .  S
C1211      C3521   1.491       .  S
C1212      C3130   1.474       .  S
C1213      C3241   1.479       .  S
O1214      H1250   0.990       .  S
O1215      C1217   1.275       .  A
O1216      C1217   1.290       .  A
C1217      C3081   1.479       .  S
O1218     Zr1219   2.439       .  S
O1218      H1247   0.990       .  S
Zr1219     O1222   2.438       .  S
Zr1219     O1223   2.439       .  S
Zr1219     O1224   2.416       .  S
O1220      C1225   1.289       .  A
O1221      H1238   0.990       .  S
O1221      H1253   0.990       .  S
O1222      H1239   0.990       .  S
O1223      H1243   0.990       .  S
O1223      H1252   0.990       .  S
O1224      C1225   1.282       .  A
C1225      C3150   1.484       .  S
O1226      H1245   0.990       .  S
O1226      H1249   0.990       .  S
O1227      H1241   0.990       .  S
O1227      H1248   0.990       .  S
O1228      C1232   1.285       .  A
O1229      C1232   1.288       .  A
O1230      H1240   0.990       .  S
O1231      H1244   0.990       .  S
C1232      C3110   1.491       .  S
Zr1255     O1256   2.443       .  S
Zr1255     O1257   2.424       .  S
Zr1255     O1258   2.451       .  S
Zr1255     O1261   2.416       .  S
Zr1255     O1263   2.375       .  S
Zr1255     O1264   2.392       .  S
Zr1255     O1265   2.400       .  S
Zr1255     O1266   2.396       .  S
O1256      H1312   0.990       .  S
O1256      H1320   0.991       .  S
O1257      C1277   1.283       .  A
O1258      C1279   1.285       .  A
O1259     Zr1269   2.443       .  S
O1259      C1278   1.287       .  A
O1260     Zr1268   2.395       .  S
O1260      C1279   1.276       .  A
O1261      C1278   1.282       .  A
O1262     Zr1270   2.436       .  S
O1262      C1277   1.284       .  A
O1263     Zr1268   2.381       .  S
O1263     Zr1270   2.377       .  S
O1264     Zr1269   2.396       .  S
O1264     Zr1270   2.380       .  S
O1264      H1299   0.967       .  S
O1265     Zr1268   2.392       .  S
O1265     Zr1285   2.399       .  S
O1265      H1302   0.962       .  S
O1266     Zr1269   2.392       .  S
O1266     Zr1285   2.383       .  S
Zr1267     O1292   2.443       .  S
Zr1267     O1286   2.449       .  S
Zr1267     O1294   2.422       .  S
Zr1267     O1282   2.458       .  S
Zr1267     O1273   2.414       .  S
Zr1267     O1274   2.409       .  S
Zr1267     O1275   2.374       .  S
Zr1267     O1276   2.384       .  S
Zr1268     O1287   2.439       .  S
Zr1268     O1280   2.434       .  S
Zr1268     O1281   2.382       .  S
Zr1268     O1274   2.386       .  S
Zr1268     O1275   2.388       .  S
Zr1269     O1271   2.434       .  S
Zr1269     O1293   2.437       .  S
Zr1269     O1295   2.453       .  S
Zr1269     O1273   2.393       .  S
Zr1269     O1276   2.391       .  S
Zr1270     O1296   2.435       .  S
Zr1270     O1297   2.436       .  S
Zr1270     O1272   2.439       .  S
Zr1270     O1273   2.401       .  S
Zr1270     O1274   2.407       .  S
O1271      H1308   0.990       .  S
O1272      H1303   0.990       .  S
O1272      H1317   0.990       .  S
O1274      H1300   0.968       .  S
O1275     Zr1285   2.371       .  S
O1276     Zr1285   2.376       .  S
O1276      H1301   0.966       .  S
C1277      C3310   1.486       .  S
C1278      C3121   1.481       .  S
C1279      C3190   1.476       .  S
O1280      H1316   0.990       .  S
O1281      C1283   1.276       .  A
O1282      C1283   1.289       .  A
C1283      C3050   1.477   1_554  S
O1284     Zr1285   2.439       .  S
O1284      H1313   0.991       .  S
Zr1285     O1288   2.436       .  S
Zr1285     O1289   2.441       .  S
Zr1285     O1290   2.419       .  S
O1286      C1291   1.286       .  A
O1287      H1304   0.990       .  S
O1287      H1319   0.990       .  S
O1288      H1305   0.989       .  S
O1289      H1309   0.990       .  S
O1289      H1318   0.990       .  S
O1290      C1291   1.283       .  A
C1291      C3061   1.482       .  S
O1292      H1311   0.990       .  S
O1292      H1315   0.990       .  S
O1293      H1307   0.990       .  S
O1293      H1314   0.990       .  S
O1294      C1298   1.284       .  A
O1295      C1298   1.289       .  A
O1296      H1306   0.990       .  S
O1297      H1310   0.990       .  S
C1298      C4001   1.486       .  S
Zr1321     O1322   2.440       .  S
Zr1321     O1323   2.426       .  S
Zr1321     O1324   2.458       .  S
Zr1321     O1327   2.435       .  S
Zr1321     O1329   2.371       .  S
Zr1321     O1330   2.393       .  S
Zr1321     O1331   2.408       .  S
Zr1321     O1332   2.393       .  S
O1322      H1378   0.990       .  S
O1322      H1386   0.991       .  S
O1323      C1343   1.282       .  A
O1324      C1345   1.288       .  A
O1325     Zr1335   2.451       .  S
O1325      C1344   1.288       .  A
O1326     Zr1334   2.380       .  S
O1326      C1345   1.275       .  A
O1327      C1344   1.286       .  A
O1328     Zr1336   2.438       .  S
O1328      C1343   1.284       .  A
O1329     Zr1334   2.384       .  S
O1329     Zr1336   2.369       .  S
O1330     Zr1335   2.403       .  S
O1330     Zr1336   2.386       .  S
O1330      H1365   0.966       .  S
O1331     Zr1334   2.390       .  S
O1331     Zr1351   2.399       .  S
O1331      H1368   0.964       .  S
O1332     Zr1335   2.389       .  S
O1332     Zr1351   2.378       .  S
Zr1333     O1358   2.444       .  S
Zr1333     O1352   2.455       .  S
Zr1333     O1360   2.413       .  S
Zr1333     O1348   2.448       .  S
Zr1333     O1339   2.410       .  S
Zr1333     O1340   2.407       .  S
Zr1333     O1341   2.375       .  S
Zr1333     O1342   2.382       .  S
Zr1334     O1353   2.438       .  S
Zr1334     O1346   2.437       .  S
Zr1334     O1347   2.393       .  S
Zr1334     O1340   2.387       .  S
Zr1334     O1341   2.382       .  S
Zr1335     O1337   2.434       .  S
Zr1335     O1359   2.438       .  S
Zr1335     O1361   2.468       .  S
Zr1335     O1339   2.392       .  S
Zr1335     O1342   2.386       .  S
Zr1336     O1362   2.435       .  S
Zr1336     O1363   2.434       .  S
Zr1336     O1338   2.440       .  S
Zr1336     O1339   2.401       .  S
Zr1336     O1340   2.408       .  S
O1337      H1374   0.990       .  S
O1338      H1369   0.990       .  S
O1338      H1383   0.990       .  S
O1340      H1366   0.969       .  S
O1341     Zr1351   2.368       .  S
O1342     Zr1351   2.382       .  S
O1342      H1367   0.965       .  S
C1343      C4370   1.489       .  S
C1344      C3021   1.483       .  S
C1345      C4041   1.476       .  S
O1346      H1382   0.990       .  S
O1347      C1349   1.278       .  A
O1348      C1349   1.287       .  A
C1349      C2990   1.468       .  S
O1350     Zr1351   2.436       .  S
O1350      H1379   0.991       .  S
Zr1351     O1354   2.437       .  S
Zr1351     O1355   2.436       .  S
Zr1351     O1356   2.420       .  S
O1352      C1357   1.288       .  A
O1353      H1370   0.990       .  S
O1353      H1385   0.990       .  S
O1354      H1371   0.990       .  S
O1355      H1375   0.990       .  S
O1355      H1384   0.990       .  S
O1356      C1357   1.283       .  A
C1357      C3141   1.483       .  S
O1358      H1377   0.990       .  S
O1358      H1381   0.990       .  S
O1359      H1373   0.990       .  S
O1359      H1380   0.990       .  S
O1360      C1364   1.283       .  A
O1361      C1364   1.292       .  A
O1362      H1372   0.990       .  S
O1363      H1376   0.990       .  S
C1364      C3010   1.494       .  S
Zr1387     O1388   2.442       .  S
Zr1387     O1389   2.427       .  S
Zr1387     O1390   2.471       .  S
Zr1387     O1393   2.439       .  S
Zr1387     O1395   2.374       .  S
Zr1387     O1396   2.398       .  S
Zr1387     O1397   2.403       .  S
Zr1387     O1398   2.398       .  S
O1388      H1444   0.990       .  S
O1388      H1452   0.991       .  S
O1389      C1409   1.283       .  A
O1390      C1411   1.290       .  A
O1391     Zr1401   2.439       .  S
O1391      C1410   1.287       .  A
O1392     Zr1400   2.398       .  S
O1392      C1411   1.278       .  A
O1393      C1410   1.287       .  A
O1394     Zr1402   2.440       .  S
O1394      C1409   1.285       .  A
O1395     Zr1400   2.383       .  S
O1395     Zr1402   2.372       .  S
O1396     Zr1401   2.403       .  S
O1396     Zr1402   2.381       .  S
O1396      H1431   0.966       .  S
O1397     Zr1400   2.393       .  S
O1397     Zr1417   2.389       .  S
O1397      H1434   0.962       .  S
O1398     Zr1401   2.401       .  S
O1398     Zr1417   2.375       .  S
Zr1399     O1424   2.440       .  S
Zr1399     O1418   2.462       .  S
Zr1399     O1426   2.417       .  S
Zr1399     O1414   2.445       .  S
Zr1399     O1405   2.414       .  S
Zr1399     O1406   2.414       .  S
Zr1399     O1407   2.374       .  S
Zr1399     O1408   2.380       .  S
Zr1400     O1419   2.437       .  S
Zr1400     O1412   2.435       .  S
Zr1400     O1413   2.396       .  S
Zr1400     O1406   2.385       .  S
Zr1400     O1407   2.386       .  S
Zr1401     O1403   2.436       .  S
Zr1401     O1425   2.436       .  S
Zr1401     O1427   2.475       .  S
Zr1401     O1405   2.390       .  S
Zr1401     O1408   2.389       .  S
Zr1402     O1428   2.435       .  S
Zr1402     O1429   2.434       .  S
Zr1402     O1404   2.437       .  S
Zr1402     O1405   2.407       .  S
Zr1402     O1406   2.407       .  S
O1403      H1440   0.990       .  S
O1404      H1435   0.990       .  S
O1404      H1449   0.990       .  S
O1406      H1432   0.966       .  S
O1407     Zr1417   2.369       .  S
O1408     Zr1417   2.379       .  S
O1408      H1433   0.967       .  S
C1409      C4181   1.488       .  S
C1410      C3030   1.484       .  S
C1411      C4121   1.483       .  S
O1412      H1448   0.990       .  S
O1413      C1415   1.278       .  A
O1414      C1415   1.287       .  A
C1415      C3041   1.477       .  S
O1416     Zr1417   2.436       .  S
O1416      H1445   0.990       .  S
Zr1417     O1420   2.436       .  S
Zr1417     O1421   2.436       .  S
Zr1417     O1422   2.400       .  S
O1418      C1423   1.288       .  A
O1419      H1436   0.990       .  S
O1419      H1451   0.990       .  S
O1420      H1437   0.990       .  S
O1421      H1441   0.990       .  S
O1421      H1450   0.990       .  S
O1422      C1423   1.279       .  A
C1423      C2961   1.479       .  S
O1424      H1443   0.990       .  S
O1424      H1447   0.990       .  S
O1425      H1439   0.990       .  S
O1425      H1446   0.990       .  S
O1426      C1430   1.282       .  A
O1427      C1430   1.292       .  A
O1428      H1438   0.990       .  S
O1429      H1442   0.990       .  S
C1430      C3210   1.498       .  S
Zr1453     O1454   2.442       .  S
Zr1453     O1455   2.439       .  S
Zr1453     O1456   2.459       .  S
Zr1453     O1459   2.427       .  S
Zr1453     O1461   2.373       .  S
Zr1453     O1462   2.390       .  S
Zr1453     O1463   2.403       .  S
Zr1453     O1464   2.403       .  S
O1454      H1510   0.990       .  S
O1454      H1518   0.991       .  S
O1455      C1475   1.285       .  A
O1456      C1477   1.287       .  A
O1457     Zr1467   2.433   1_556  S
O1457      C1476   1.286       .  A
O1458     Zr1466   2.403       .  S
O1458      C1477   1.279       .  A
O1459      C1476   1.284   1_554  A
O1460     Zr1468   2.438       .  S
O1460      C1475   1.285       .  A
O1461     Zr1466   2.385       .  S
O1461     Zr1468   2.376       .  S
O1462     Zr1467   2.403       .  S
O1462     Zr1468   2.380       .  S
O1462      H1497   0.966       .  S
O1463     Zr1466   2.389       .  S
O1463     Zr1483   2.393       .  S
O1463      H1500   0.964       .  S
O1464     Zr1467   2.395       .  S
O1464     Zr1483   2.390       .  S
Zr1465     O1490   2.441       .  S
Zr1465     O1484   2.455       .  S
Zr1465     O1492   2.415       .  S
Zr1465     O1480   2.459       .  S
Zr1465     O1471   2.406       .  S
Zr1465     O1472   2.412       .  S
Zr1465     O1473   2.374       .  S
Zr1465     O1474   2.384       .  S
Zr1466     O1485   2.437       .  S
Zr1466     O1478   2.435       .  S
Zr1466     O1479   2.380       .  S
Zr1466     O1472   2.395       .  S
Zr1466     O1473   2.390       .  S
Zr1467     O1469   2.435   1_554  S
Zr1467     O1491   2.439   1_554  S
Zr1467     O1493   2.449       .  S
Zr1467     O1471   2.388       .  S
Zr1467     O1474   2.385       .  S
Zr1468     O1494   2.437       .  S
Zr1468     O1495   2.435       .  S
Zr1468     O1470   2.436       .  S
Zr1468     O1471   2.392       .  S
Zr1468     O1472   2.406       .  S
O1469      H1506   0.990       .  S
O1470      H1501   0.990       .  S
O1470      H1515   0.990       .  S
O1472      H1498   0.968       .  S
O1473     Zr1483   2.370       .  S
O1474     Zr1483   2.381       .  S
O1474      H1499   0.965       .  S
C1475      C2901   1.493       .  S
C1476      C2930   1.480       .  S
C1477      C2950   1.478       .  S
O1478      H1514   0.990       .  S
O1479      C1481   1.276       .  A
O1480      C1481   1.288       .  A
C1481      C2981   1.479       .  S
O1482     Zr1483   2.438       .  S
O1482      H1511   0.990       .  S
Zr1483     O1486   2.439       .  S
Zr1483     O1487   2.438       .  S
Zr1483     O1488   2.413       .  S
O1484      C1489   1.286       .  A
O1485      H1502   0.990       .  S
O1485      H1517   0.990       .  S
O1486      H1503   0.990       .  S
O1487      H1507   0.990       .  S
O1487      H1516   0.990       .  S
O1488      C1489   1.281       .  A
C1489      C3070   1.475       .  S
O1490      H1509   0.990       .  S
O1490      H1513   0.990       .  S
O1491      H1505   0.990       .  S
O1491      H1512   0.989       .  S
O1492      C1496   1.282       .  A
O1493      C1496   1.288       .  A
O1494      H1504   0.990       .  S
O1495      H1508   0.990       .  S
C1496      C4070   1.485       .  S
Zr1519     O1520   2.442       .  S
Zr1519     O1521   2.412       .  S
Zr1519     O1522   2.452       .  S
Zr1519     O1525   2.424       .  S
Zr1519     O1527   2.374       .  S
Zr1519     O1528   2.396       .  S
Zr1519     O1529   2.397       .  S
Zr1519     O1530   2.387       .  S
O1520      H1576   0.990       .  S
O1520      H1584   0.991       .  S
O1521      C1541   1.281       .  A
O1522      C1543   1.286       .  A
O1523     Zr1533   2.439       .  S
O1523      C1542   1.287       .  A
O1524     Zr1532   2.385       .  S
O1524      C1543   1.276       .  A
O1525      C1542   1.284       .  A
O1526     Zr1534   2.439       .  S
O1526      C1541   1.285       .  A
O1527     Zr1532   2.382       .  S
O1527     Zr1534   2.372       .  S
O1528     Zr1533   2.400       .  S
O1528     Zr1534   2.380       .  S
O1528      H1563   0.966       .  S
O1529     Zr1532   2.390       .  S
O1529     Zr1549   2.396       .  S
O1529      H1566   0.963       .  S
O1530     Zr1533   2.389       .  S
O1530     Zr1549   2.371       .  S
Zr1531     O1556   2.441       .  S
Zr1531     O1550   2.463       .  S
Zr1531     O1558   2.424       .  S
Zr1531     O1546   2.460       .  S
Zr1531     O1537   2.414       .  S
Zr1531     O1538   2.411       .  S
Zr1531     O1539   2.373       .  S
Zr1531     O1540   2.388       .  S
Zr1532     O1551   2.439       .  S
Zr1532     O1544   2.435       .  S
Zr1532     O1545   2.379       .  S
Zr1532     O1538   2.387       .  S
Zr1532     O1539   2.385       .  S
Zr1533     O1535   2.435       .  S
Zr1533     O1557   2.438       .  S
Zr1533     O1559   2.450       .  S
Zr1533     O1537   2.392       .  S
Zr1533     O1540   2.394       .  S
Zr1534     O1560   2.435       .  S
Zr1534     O1561   2.434       .  S
Zr1534     O1536   2.435       .  S
Zr1534     O1537   2.397       .  S
Zr1534     O1538   2.410       .  S
O1535      H1572   0.990       .  S
O1536      H1567   0.990       .  S
O1536      H1581   0.990       .  S
O1538      H1564   0.966       .  S
O1539     Zr1549   2.373       .  S
O1540     Zr1549   2.385       .  S
O1540      H1565   0.965       .  S
C1541      C2870   1.484       .  S
C1542      C2921   1.480       .  S
C1543      C2881   1.473       .  S
O1544      H1580   0.990       .  S
O1545      C1547   1.276       .  A
O1546      C1547   1.288       .  A
C1547      C3090   1.477       .  S
O1548     Zr1549   2.435       .  S
O1548      H1577   0.990       .  S
Zr1549     O1552   2.436       .  S
Zr1549     O1553   2.439       .  S
Zr1549     O1554   2.402       .  S
O1550      C1555   1.288       .  A
O1551      H1568   0.990       .  S
O1551      H1583   0.990       .  S
O1552      H1569   0.990       .  S
O1553      H1573   0.990       .  S
O1553      H1582   0.990       .  S
O1554      C1555   1.280       .  A
C1555      C2970   1.479       .  S
O1556      H1575   0.990       .  S
O1556      H1579   0.990       .  S
O1557      H1571   0.990       .  S
O1557      H1578   0.990       .  S
O1558      C1562   1.282       .  A
O1559      C1562   1.288       .  A
O1560      H1570   0.988       .  S
O1561      H1574   0.990       .  S
C1562      C3161   1.484       .  S
Zr1585     O1586   2.441       .  S
Zr1585     O1587   2.437       .  S
Zr1585     O1588   2.449       .  S
Zr1585     O1591   2.427       .  S
Zr1585     O1593   2.376       .  S
Zr1585     O1594   2.389       .  S
Zr1585     O1595   2.405       .  S
Zr1585     O1596   2.397       .  S
O1586      H1642   0.990       .  S
O1586      H1650   0.991       .  S
O1587      C1607   1.285       .  A
O1588      C1609   1.286       .  A
O1589     Zr1599   2.436       .  S
O1589      C1608   1.286       .  A
O1590     Zr1598   2.403       .  S
O1590      C1609   1.278       .  A
O1591      C1608   1.284       .  A
O1592     Zr1600   2.440       .  S
O1592      C1607   1.285       .  A
O1593     Zr1598   2.382       .  S
O1593     Zr1600   2.375       .  S
O1594     Zr1599   2.398       .  S
O1594     Zr1600   2.381       .  S
O1594      H1629   0.966       .  S
O1595     Zr1598   2.395       .  S
O1595     Zr1615   2.393       .  S
O1595      H1632   0.964       .  S
O1596     Zr1599   2.393       .  S
O1596     Zr1615   2.385       .  S
Zr1597     O1622   2.446       .  S
Zr1597     O1616   2.458       .  S
Zr1597     O1624   2.421       .  S
Zr1597     O1612   2.459       .  S
Zr1597     O1603   2.413       .  S
Zr1597     O1604   2.411       .  S
Zr1597     O1605   2.374       .  S
Zr1597     O1606   2.386       .  S
Zr1598     O1617   2.440       .  S
Zr1598     O1610   2.434       .  S
Zr1598     O1611   2.393       .  S
Zr1598     O1604   2.386       .  S
Zr1598     O1605   2.389       .  S
Zr1599     O1601   2.435       .  S
Zr1599     O1623   2.437       .  S
Zr1599     O1625   2.444       .  S
Zr1599     O1603   2.392       .  S
Zr1599     O1606   2.394       .  S
Zr1600     O1626   2.437       .  S
Zr1600     O1627   2.435       .  S
Zr1600     O1602   2.439       .  S
Zr1600     O1603   2.403       .  S
Zr1600     O1604   2.408       .  S
O1601      H1638   0.990       .  S
O1602      H1633   0.990       .  S
O1602      H1647   0.990       .  S
O1604      H1630   0.968       .  S
O1605     Zr1615   2.370       .  S
O1606     Zr1615   2.376       .  S
O1606      H1631   0.965       .  S
C1607      C2790   1.492       .  S
C1608      C2801   1.483       .  S
C1609      C2841   1.472       .  S
O1610      H1646   0.990       .  S
O1611      C1613   1.278       .  A
O1612      C1613   1.289       .  A
C1613      C2770   1.482   1_554  S
O1614     Zr1615   2.438       .  S
O1614      H1643   0.991       .  S
Zr1615     O1618   2.437       .  S
Zr1615     O1619   2.439       .  S
Zr1615     O1620   2.414       .  S
O1616      C1621   1.288       .  A
O1617      H1634   0.990   1_554  S
O1617      H1649   0.990       .  S
O1618      H1635   0.990       .  S
O1619      H1639   0.990       .  S
O1619      H1648   0.990       .  S
O1620      C1621   1.281       .  A
C1621      C2830   1.484       .  S
O1622      H1641   0.990       .  S
O1622      H1645   0.990       .  S
O1623      H1637   0.990       .  S
O1623      H1644   0.990       .  S
O1624      C1628   1.283       .  A
O1625      C1628   1.287       .  A
O1626      H1636   0.990       .  S
O1627      H1640   0.990       .  S
C1628      C3321   1.485       .  S
Zr1651     O1652   2.442       .  S
Zr1651     O1653   2.411       .  S
Zr1651     O1654   2.463       .  S
Zr1651     O1657   2.428       .  S
Zr1651     O1659   2.371       .  S
Zr1651     O1660   2.397       .  S
Zr1651     O1661   2.400       .  S
Zr1651     O1662   2.396       .  S
O1652      H1708   0.990       .  S
O1652      H1716   0.991       .  S
O1653      C1673   1.280       .  A
O1654      C1675   1.287       .  A
O1655     Zr1665   2.444       .  S
O1655      C1674   1.287       .  A
O1656     Zr1664   2.385       .  S
O1656      C1675   1.276       .  A
O1657      C1674   1.285       .  A
O1658     Zr1666   2.449       .  S
O1658      C1673   1.287       .  A
O1659     Zr1664   2.381       .  S
O1659     Zr1666   2.372       .  S
O1660     Zr1665   2.398       .  S
O1660     Zr1666   2.383       .  S
O1660      H1695   0.969       .  S
O1661     Zr1664   2.387       .  S
O1661     Zr1681   2.406       .  S
O1661      H1698   0.965       .  S
O1662     Zr1665   2.395       .  S
O1662     Zr1681   2.377       .  S
Zr1663     O1688   2.446       .  S
Zr1663     O1682   2.449       .  S
Zr1663     O1690   2.419       .  S
Zr1663     O1678   2.454       .  S
Zr1663     O1669   2.415       .  S
Zr1663     O1670   2.406       .  S
Zr1663     O1671   2.379       .  S
Zr1663     O1672   2.388       .  S
Zr1664     O1683   2.437       .  S
Zr1664     O1676   2.436       .  S
Zr1664     O1677   2.384       .  S
Zr1664     O1670   2.388       .  S
Zr1664     O1671   2.386       .  S
Zr1665     O1667   2.435       .  S
Zr1665     O1689   2.437       .  S
Zr1665     O1691   2.459       .  S
Zr1665     O1669   2.392       .  S
Zr1665     O1672   2.387       .  S
Zr1666     O1692   2.437       .  S
Zr1666     O1693   2.435       .  S
Zr1666     O1668   2.437       .  S
Zr1666     O1669   2.401       .  S
Zr1666     O1670   2.409       .  S
O1667      H1704   0.990       .  S
O1668      H1699   0.990       .  S
O1668      H1713   0.990       .  S
O1670      H1696   0.969       .  S
O1671     Zr1681   2.372       .  S
O1672     Zr1681   2.381       .  S
O1672      H1697   0.966       .  S
C1673      C2701   1.486       .  S
C1674      C2810   1.482       .  S
C1675      C2730   1.479       .  S
O1676      H1712   0.990       .  S
O1677      C1679   1.276       .  A
O1678      C1679   1.288       .  A
C1679      C2690   1.470       .  S
O1680     Zr1681   2.437       .  S
O1680      H1709   0.990       .  S
Zr1681     O1684   2.435       .  S
Zr1681     O1685   2.439       .  S
Zr1681     O1686   2.422       .  S
O1682      C1687   1.287       .  A
O1683      H1700   0.990       .  S
O1683      H1715   0.990       .  S
O1684      H1701   0.990       .  S
O1685      H1705   0.990       .  S
O1685      H1714   0.990       .  S
O1686      C1687   1.284       .  A
C1687      C2750   1.479       .  S
O1688      H1707   0.990       .  S
O1688      H1711   0.990       .  S
O1689      H1703   0.990       .  S
O1689      H1710   0.990       .  S
O1690      C1694   1.283       .  A
O1691      C1694   1.290       .  A
O1692      H1702   0.990       .  S
O1693      H1706   0.990       .  S
C1694      C4450   1.491       .  S
Zr1717     O1718   2.442       .  S
Zr1717     O1719   2.428       .  S
Zr1717     O1720   2.456       .  S
Zr1717     O1723   2.428       .  S
Zr1717     O1725   2.371       .  S
Zr1717     O1726   2.392       .  S
Zr1717     O1727   2.404       .  S
Zr1717     O1728   2.393       .  S
O1718      H1774   0.990       .  S
O1718      H1782   0.991       .  S
O1719      C1739   1.283       .  A
O1720      C1741   1.287       .  A
O1721     Zr1731   2.447   1_556  S
O1721      C1740   1.288       .  A
O1722     Zr1730   2.393       .  S
O1722      C1741   1.278       .  A
O1723      C1740   1.285   1_554  A
O1724     Zr1732   2.442       .  S
O1724      C1739   1.285       .  A
O1725     Zr1730   2.389       .  S
O1725     Zr1732   2.370       .  S
O1726     Zr1731   2.397       .  S
O1726     Zr1732   2.382       .  S
O1726      H1761   0.966       .  S
O1727     Zr1730   2.391       .  S
O1727     Zr1747   2.401       .  S
O1727      H1764   0.965       .  S
O1728     Zr1731   2.390       .  S
O1728     Zr1747   2.378       .  S
Zr1729     O1754   2.443   1_545  S
Zr1729     O1748   2.452   1_545  S
Zr1729     O1756   2.422   1_545  S
Zr1729     O1744   2.464       .  S
Zr1729     O1735   2.418       .  S
Zr1729     O1736   2.406       .  S
Zr1729     O1737   2.374       .  S
Zr1729     O1738   2.388       .  S
Zr1730     O1749   2.436       .  S
Zr1730     O1742   2.435       .  S
Zr1730     O1743   2.406       .  S
Zr1730     O1736   2.387       .  S
Zr1730     O1737   2.381       .  S
Zr1731     O1733   2.436   1_554  S
Zr1731     O1755   2.438   1_554  S
Zr1731     O1757   2.453       .  S
Zr1731     O1735   2.395       .  S
Zr1731     O1738   2.392       .  S
Zr1732     O1758   2.436       .  S
Zr1732     O1759   2.435       .  S
Zr1732     O1734   2.438       .  S
Zr1732     O1735   2.407       .  S
Zr1732     O1736   2.409       .  S
O1733      H1770   0.990       .  S
O1734      H1765   0.990       .  S
O1734      H1779   0.990       .  S
O1736      H1762   0.969       .  S
O1737     Zr1747   2.369       .  S
O1738     Zr1747   2.379       .  S
O1738      H1763   0.966       .  S
C1739      C4081   1.489       .  S
C1740      C2670   1.482       .  S
C1741      C4521   1.481       .  S
O1742      H1778   0.990       .  S
O1743      C1745   1.280       .  A
O1744      C1745   1.290       .  A
C1745      C2641   1.479       .  S
O1746     Zr1747   2.439       .  S
O1746      H1775   0.991       .  S
Zr1747     O1750   2.437       .  S
Zr1747     O1751   2.439       .  S
Zr1747     O1752   2.416       .  S
O1748      C1753   1.287       .  A
O1749      H1766   0.990       .  S
O1749      H1781   0.990       .  S
O1750      H1767   0.990       .  S
O1751      H1771   0.990       .  S
O1751      H1780   0.990       .  S
O1752      C1753   1.282   1_545  A
C1753      C2821   1.481       .  S
O1754      H1773   0.990       .  S
O1754      H1777   0.990       .  S
O1755      H1769   0.990       .  S
O1755      H1776   0.990       .  S
O1756      C1760   1.282       .  A
O1757      C1760   1.288   1_545  A
O1758      H1768   0.990       .  S
O1759      H1772   0.990       .  S
C1760      C3361   1.473       .  S
Zr1783     O1784   2.442       .  S
Zr1783     O1785   2.430       .  S
Zr1783     O1786   2.455       .  S
Zr1783     O1789   2.434       .  S
Zr1783     O1791   2.376       .  S
Zr1783     O1792   2.392       .  S
Zr1783     O1793   2.410       .  S
Zr1783     O1794   2.394       .  S
O1784      H1840   0.990       .  S
O1784      H1848   0.991       .  S
O1785      C1805   1.282       .  A
O1786      C1807   1.286       .  A
O1787     Zr1797   2.445       .  S
O1787      C1806   1.287       .  A
O1788     Zr1796   2.387       .  S
O1788      C1807   1.275       .  A
O1789      C1806   1.286       .  A
O1790     Zr1798   2.433       .  S
O1790      C1805   1.282       .  A
O1791     Zr1796   2.383       .  S
O1791     Zr1798   2.376       .  S
O1792     Zr1797   2.400       .  S
O1792     Zr1798   2.385       .  S
O1792      H1827   0.967       .  S
O1793     Zr1796   2.391       .  S
O1793     Zr1813   2.394       .  S
O1793      H1830   0.962       .  S
O1794     Zr1797   2.390       .  S
O1794     Zr1813   2.378       .  S
Zr1795     O1820   2.439       .  S
Zr1795     O1814   2.451       .  S
Zr1795     O1822   2.417       .  S
Zr1795     O1810   2.454       .  S
Zr1795     O1801   2.412       .  S
Zr1795     O1802   2.410       .  S
Zr1795     O1803   2.371       .  S
Zr1795     O1804   2.389       .  S
Zr1796     O1815   2.441       .  S
Zr1796     O1808   2.436       .  S
Zr1796     O1809   2.383       .  S
Zr1796     O1802   2.383       .  S
Zr1796     O1803   2.381       .  S
Zr1797     O1799   2.435       .  S
Zr1797     O1821   2.437       .  S
Zr1797     O1823   2.455       .  S
Zr1797     O1801   2.395       .  S
Zr1797     O1804   2.391       .  S
Zr1798     O1824   2.435       .  S
Zr1798     O1825   2.435       .  S
Zr1798     O1800   2.437       .  S
Zr1798     O1801   2.402       .  S
Zr1798     O1802   2.410       .  S
O1799      H1836   0.990       .  S
O1800      H1831   0.990       .  S
O1800      H1845   0.990       .  S
O1802      H1828   0.968       .  S
O1803     Zr1813   2.365       .  S
O1804     Zr1813   2.384       .  S
O1804      H1829   0.964       .  S
C1805      C4241   1.488       .  S
C1806      C2661   1.482       .  S
C1807      C4390   1.472       .  S
O1808      H1844   0.990       .  S
O1809      C1811   1.277       .  A
O1810      C1811   1.288       .  A
C1811      C2681   1.482       .  S
O1812     Zr1813   2.435       .  S
O1812      H1841   0.990       .  S
Zr1813     O1816   2.435       .  S
Zr1813     O1817   2.436       .  S
Zr1813     O1818   2.418       .  S
O1814      C1819   1.287       .  A
O1815      H1832   0.990       .  S
O1815      H1847   0.990       .  S
O1816      H1833   0.990       .  S
O1817      H1837   0.990       .  S
O1817      H1846   0.990       .  S
O1818      C1819   1.283       .  A
C1819      C2621   1.479       .  S
O1820      H1839   0.990       .  S
O1820      H1843   0.990       .  S
O1821      H1835   0.990       .  S
O1821      H1842   0.990       .  S
O1822      C1826   1.282       .  A
O1823      C1826   1.288       .  A
O1824      H1834   0.990       .  S
O1825      H1838   0.990       .  S
C1826      C2601   1.484       .  S
Zr1849     O1850   2.442       .  S
Zr1849     O1851   2.423       .  S
Zr1849     O1852   2.454       .  S
Zr1849     O1855   2.434       .  S
Zr1849     O1857   2.377       .  S
Zr1849     O1858   2.392       .  S
Zr1849     O1859   2.403       .  S
Zr1849     O1860   2.393       .  S
O1850      H1906   0.990       .  S
O1850      H1914   0.991       .  S
O1851      C1871   1.281       .  A
O1852      C1873   1.286       .  A
O1853     Zr1863   2.445       .  S
O1853      C1872   1.287       .  A
O1854     Zr1862   2.391       .  S
O1854      C1873   1.277       .  A
O1855      C1872   1.286       .  A
O1856     Zr1864   2.444       .  S
O1856      C1871   1.285       .  A
O1857     Zr1862   2.385       .  S
O1857     Zr1864   2.371       .  S
O1858     Zr1863   2.401       .  S
O1858     Zr1864   2.384       .  S
O1858      H1893   0.969       .  S
O1859     Zr1862   2.393       .  S
O1859     Zr1879   2.394       .  S
O1859      H1896   0.963       .  S
O1860     Zr1863   2.394       .  S
O1860     Zr1879   2.380       .  S
Zr1861     O1886   2.439   1_565  S
Zr1861     O1880   2.463   1_565  S
Zr1861     O1888   2.435   1_565  S
Zr1861     O1876   2.469       .  S
Zr1861     O1867   2.421       .  S
Zr1861     O1868   2.409       .  S
Zr1861     O1869   2.377       .  S
Zr1861     O1870   2.386       .  S
Zr1862     O1881   2.438       .  S
Zr1862     O1874   2.436       .  S
Zr1862     O1875   2.390       .  S
Zr1862     O1868   2.385       .  S
Zr1862     O1869   2.389       .  S
Zr1863     O1865   2.436       .  S
Zr1863     O1887   2.436       .  S
Zr1863     O1889   2.457   1_565  S
Zr1863     O1867   2.400       .  S
Zr1863     O1870   2.384       .  S
Zr1864     O1890   2.438       .  S
Zr1864     O1891   2.435       .  S
Zr1864     O1866   2.438       .  S
Zr1864     O1867   2.409       .  S
Zr1864     O1868   2.405       .  S
O1865      H1902   0.990       .  S
O1866      H1897   0.990       .  S
O1866      H1911   0.990       .  S
O1868      H1894   0.969       .  S
O1869     Zr1879   2.375       .  S
O1870     Zr1879   2.378       .  S
O1870      H1895   0.965       .  S
C1871      C3470   1.488       .  S
C1872      C2581   1.486       .  S
C1873      C3350   1.477       .  S
O1874      H1910   0.990       .  S
O1875      C1877   1.277       .  A
O1876      C1877   1.292       .  A
C1877      C2650   1.486       .  S
O1878     Zr1879   2.434       .  S
O1878      H1907   0.990       .  S
Zr1879     O1882   2.435       .  S
Zr1879     O1883   2.438       .  S
Zr1879     O1884   2.413       .  S
O1880      C1885   1.289       .  A
O1881      H1898   0.990       .  S
O1881      H1913   0.990       .  S
O1882      H1899   0.990       .  S
O1883      H1903   0.990       .  S
O1883      H1912   0.990       .  S
O1884      C1885   1.281   1_565  A
C1885      C2741   1.472       .  S
O1886      H1905   0.990       .  S
O1886      H1909   0.990       .  S
O1887      H1901   0.990       .  S
O1887      H1908   0.990       .  S
O1888      C1892   1.286       .  A
O1889      C1892   1.289       .  A
O1890      H1900   0.990       .  S
O1891      H1904   0.990       .  S
C1892      C4350   1.493       .  S
Zr1915     O1916   2.442       .  S
Zr1915     O1917   2.438       .  S
Zr1915     O1918   2.461       .  S
Zr1915     O1921   2.438       .  S
Zr1915     O1923   2.376       .  S
Zr1915     O1924   2.396       .  S
Zr1915     O1925   2.404       .  S
Zr1915     O1926   2.397       .  S
O1916      H1972   0.990       .  S
O1916      H1980   0.991       .  S
O1917      C1937   1.284       .  A
O1918      C1939   1.288       .  A
O1919     Zr1929   2.448       .  S
O1919      C1938   1.288       .  A
O1920     Zr1928   2.393       .  S
O1920      C1939   1.277       .  A
O1921      C1938   1.286       .  A
O1922     Zr1930   2.439       .  S
O1922      C1937   1.285       .  A
O1923     Zr1928   2.387       .  S
O1923     Zr1930   2.372       .  S
O1924     Zr1929   2.405       .  S
O1924     Zr1930   2.383       .  S
O1924      H1959   0.967       .  S
O1925     Zr1928   2.397       .  S
O1925     Zr1945   2.392       .  S
O1925      H1962   0.963       .  S
O1926     Zr1929   2.398       .  S
O1926     Zr1945   2.380       .  S
Zr1927     O1952   2.440       .  S
Zr1927     O1946   2.456       .  S
Zr1927     O1954   2.412       .  S
Zr1927     O1942   2.466       .  S
Zr1927     O1933   2.413       .  S
Zr1927     O1934   2.412       .  S
Zr1927     O1935   2.366       .  S
Zr1927     O1936   2.390       .  S
Zr1928     O1947   2.440       .  S
Zr1928     O1940   2.434       .  S
Zr1928     O1941   2.397       .  S
Zr1928     O1934   2.389       .  S
Zr1928     O1935   2.380       .  S
Zr1929     O1931   2.435       .  S
Zr1929     O1953   2.439       .  S
Zr1929     O1955   2.471       .  S
Zr1929     O1933   2.390       .  S
Zr1929     O1936   2.395       .  S
Zr1930     O1956   2.437       .  S
Zr1930     O1957   2.434       .  S
Zr1930     O1932   2.436       .  S
Zr1930     O1933   2.397       .  S
Zr1930     O1934   2.418       .  S
O1931      H1968   0.990       .  S
O1932      H1963   0.990       .  S
O1932      H1977   0.990       .  S
O1934      H1960   0.970       .  S
O1935     Zr1945   2.364       .  S
O1936     Zr1945   2.385       .  S
O1936      H1961   0.966       .  S
C1937      C3230   1.493       .  S
C1938      C2590   1.486       .  S
C1939      C3430   1.479       .  S
O1940      H1976   0.990       .  S
O1941      C1943   1.278       .  A
O1942      C1943   1.289       .  A
C1943      C2761   1.475       .  S
O1944     Zr1945   2.433       .  S
O1944      H1973   0.990       .  S
Zr1945     O1948   2.436       .  S
Zr1945     O1949   2.437       .  S
Zr1945     O1950   2.411       .  S
O1946      C1951   1.287       .  A
O1947      H1964   0.990       .  S
O1947      H1979   0.990       .  S
O1948      H1965   0.990       .  S
O1949      H1969   0.990       .  S
O1949      H1978   0.990       .  S
O1950      C1951   1.281       .  A
C1951      C2630   1.477       .  S
O1952      H1971   0.990       .  S
O1952      H1975   0.990       .  S
O1953      H1967   0.990       .  S
O1953      H1974   0.990       .  S
O1954      C1958   1.282       .  A
O1955      C1958   1.291       .  A
O1956      H1966   0.990       .  S
O1957      H1970   0.990       .  S
C1958      C2570   1.485       .  S
Zr1981     O1982   2.443       .  S
Zr1981     O1983   2.448       .  S
Zr1981     O1984   2.436       .  S
Zr1981     O1987   2.460       .  S
Zr1981     O1989   2.389       .  S
Zr1981     O1990   2.379       .  S
Zr1981     O1991   2.418       .  S
Zr1981     O1992   2.402       .  S
O1982      H2038   0.990       .  S
O1982      H2046   0.991       .  S
O1983      C2003   1.287       .  A
O1984      C2005   1.284   1_556  A
O1985     Zr1995   2.396       .  S
O1985      C2004   1.279       .  A
O1986     Zr1994   2.441   1_554  S
O1986      C2005   1.286       .  A
O1987      C2004   1.289       .  A
O1988     Zr1996   2.420       .  S
O1988      C2003   1.282       .  A
O1989     Zr1994   2.405       .  S
O1989     Zr1996   2.380       .  S
O1990     Zr1995   2.383       .  S
O1990     Zr1996   2.379       .  S
O1990      H2025   0.966       .  S
O1991     Zr1994   2.407       .  S
O1991     Zr2011   2.389       .  S
O1991      H2028   0.962       .  S
O1992     Zr1995   2.382       .  S
O1992     Zr2011   2.392       .  S
Zr1993     O2018   2.437   1_565  S
Zr1993     O2012   2.440   1_565  S
Zr1993     O2020   2.464       .  S
Zr1993     O2008   2.437   1_565  S
Zr1993     O1999   2.402       .  S
Zr1993     O2000   2.413       .  S
Zr1993     O2001   2.386       .  S
Zr1993     O2002   2.379       .  S
Zr1994     O2013   2.438   1_556  S
Zr1994     O2006   2.434   1_556  S
Zr1994     O2007   2.457   1_565  S
Zr1994     O2000   2.404       .  S
Zr1994     O2001   2.392       .  S
Zr1995     O1997   2.437       .  S
Zr1995     O2019   2.435       .  S
Zr1995     O2021   2.393       .  S
Zr1995     O1999   2.381       .  S
Zr1995     O2002   2.384       .  S
Zr1996     O2022   2.436       .  S
Zr1996     O2023   2.435       .  S
Zr1996     O1998   2.437       .  S
Zr1996     O1999   2.395       .  S
Zr1996     O2000   2.388       .  S
O1997      H2034   0.990       .  S
O1998      H2029   0.990       .  S
O1998      H2043   0.990       .  S
O2000      H2026   0.963       .  S
O2001     Zr2011   2.377       .  S
O2002     Zr2011   2.369       .  S
O2002      H2027   0.966       .  S
C2003      C3661   1.489       .  S
C2004      C3990   1.484       .  S
C2005      C2541   1.483       .  S
O2006      H2042   0.990       .  S
O2007      C2009   1.290       .  A
O2008      C2009   1.287       .  A
C2009      C2910   1.493       .  S
O2010     Zr2011   2.437       .  S
O2010      H2039   0.990       .  S
Zr2011     O2014   2.437       .  S
Zr2011     O2015   2.440       .  S
Zr2011     O2016   2.415       .  S
O2012      C2017   1.284       .  A
O2013      H2030   0.990       .  S
O2013      H2045   0.990       .  S
O2014      H2031   0.989       .  S
O2015      H2035   0.990       .  S
O2015      H2044   0.990       .  S
O2016      C2017   1.281   1_565  A
C2017      C2521   1.470       .  S
O2018      H2037   0.990       .  S
O2018      H2041   0.990       .  S
O2019      H2033   0.990       .  S
O2019      H2040   0.990       .  S
O2020      C2024   1.291       .  A
O2021      C2024   1.279       .  A
O2022      H2032   0.990       .  S
O2023      H2036   0.990       .  S
C2024      C2501   1.479       .  S
Zr2047     O2048   2.442       .  S
Zr2047     O2049   2.435       .  S
Zr2047     O2050   2.439       .  S
Zr2047     O2053   2.464       .  S
Zr2047     O2055   2.389       .  S
Zr2047     O2056   2.384       .  S
Zr2047     O2057   2.415       .  S
Zr2047     O2058   2.394       .  S
O2048      H2104   0.990       .  S
O2048      H2112   0.991       .  S
O2049      C2069   1.283       .  A
O2050      C2071   1.285       .  A
O2051     Zr2061   2.398       .  S
O2051      C2070   1.278       .  A
O2052     Zr2060   2.436       .  S
O2052      C2071   1.286       .  A
O2053      C2070   1.290       .  A
O2054     Zr2062   2.428       .  S
O2054      C2069   1.283       .  A
O2055     Zr2060   2.401       .  S
O2055     Zr2062   2.379       .  S
O2056     Zr2061   2.385       .  S
O2056     Zr2062   2.380       .  S
O2056      H2091   0.965       .  S
O2057     Zr2060   2.408       .  S
O2057     Zr2077   2.382       .  S
O2057      H2094   0.961       .  S
O2058     Zr2061   2.381       .  S
O2058     Zr2077   2.379       .  S
Zr2059     O2084   2.439       .  S
Zr2059     O2078   2.466       .  S
Zr2059     O2086   2.458       .  S
Zr2059     O2074   2.437       .  S
Zr2059     O2065   2.416       .  S
Zr2059     O2066   2.418       .  S
Zr2059     O2067   2.380       .  S
Zr2059     O2068   2.379       .  S
Zr2060     O2079   2.435       .  S
Zr2060     O2072   2.436       .  S
Zr2060     O2073   2.449       .  S
Zr2060     O2066   2.398       .  S
Zr2060     O2067   2.392       .  S
Zr2061     O2063   2.437       .  S
Zr2061     O2085   2.438       .  S
Zr2061     O2087   2.388       .  S
Zr2061     O2065   2.385       .  S
Zr2061     O2068   2.390       .  S
Zr2062     O2088   2.435       .  S
Zr2062     O2089   2.436       .  S
Zr2062     O2064   2.437       .  S
Zr2062     O2065   2.406       .  S
Zr2062     O2066   2.395       .  S
O2063      H2100   0.990       .  S
O2064      H2095   0.990       .  S
O2064      H2109   0.990       .  S
O2066      H2092   0.963       .  S
O2067     Zr2077   2.377       .  S
O2068     Zr2077   2.371       .  S
O2068      H2093   0.966       .  S
C2069      C3601   1.482       .  S
C2070      C3870   1.478       .  S
C2071      C2550   1.480       .  S
O2072      H2108   0.990       .  S
O2073      C2075   1.288       .  A
O2074      C2075   1.286       .  A
C2075      C2781   1.487       .  S
O2076     Zr2077   2.438       .  S
O2076      H2105   0.990       .  S
Zr2077     O2080   2.435       .  S
Zr2077     O2081   2.441       .  S
Zr2077     O2082   2.403       .  S
O2078      C2083   1.290       .  A
O2079      H2096   0.990       .  S
O2079      H2111   0.990       .  S
O2080      H2097   0.990       .  S
O2081      H2101   0.990       .  S
O2081      H2110   0.990       .  S
O2082      C2083   1.280       .  A
C2083      C2481   1.487       .  S
O2084      H2103   0.990       .  S
O2084      H2107   0.990       .  S
O2085      H2099   0.990       .  S
O2085      H2106   0.990       .  S
O2086      C2090   1.290       .  A
O2087      C2090   1.277       .  A
O2088      H2098   0.990       .  S
O2089      H2102   0.990       .  S
C2090      C2470   1.480       .  S
Zr2113     O2114   2.442       .  S
Zr2113     O2115   2.449       .  S
Zr2113     O2116   2.454       .  S
Zr2113     O2119   2.459       .  S
Zr2113     O2121   2.392       .  S
Zr2113     O2122   2.386       .  S
Zr2113     O2123   2.419       .  S
Zr2113     O2124   2.398       .  S
O2114      H2170   0.990       .  S
O2114      H2178   0.991       .  S
O2115      C2135   1.286       .  A
O2116      C2137   1.287       .  A
O2117     Zr2127   2.386       .  S
O2117      C2136   1.277       .  A
O2118     Zr2126   2.443       .  S
O2118      C2137   1.288       .  A
O2119      C2136   1.289       .  A
O2120     Zr2128   2.438       .  S
O2120      C2135   1.285       .  A
O2121     Zr2126   2.405       .  S
O2121     Zr2128   2.382       .  S
O2122     Zr2127   2.386       .  S
O2122     Zr2128   2.375       .  S
O2122      H2157   0.965       .  S
O2123     Zr2126   2.416       .  S
O2123     Zr2143   2.386       .  S
O2123      H2160   0.962       .  S
O2124     Zr2127   2.382       .  S
O2124     Zr2143   2.383       .  S
Zr2125     O2150   2.439       .  S
Zr2125     O2144   2.445       .  S
Zr2125     O2152   2.454       .  S
Zr2125     O2140   2.428       .  S
Zr2125     O2131   2.406       .  S
Zr2125     O2132   2.416       .  S
Zr2125     O2133   2.382       .  S
Zr2125     O2134   2.378       .  S
Zr2126     O2145   2.436       .  S
Zr2126     O2138   2.436       .  S
Zr2126     O2139   2.468       .  S
Zr2126     O2132   2.402       .  S
Zr2126     O2133   2.396       .  S
Zr2127     O2129   2.436       .  S
Zr2127     O2151   2.437       .  S
Zr2127     O2153   2.392       .  S
Zr2127     O2131   2.379       .  S
Zr2127     O2134   2.385       .  S
Zr2128     O2154   2.436       .  S
Zr2128     O2155   2.435       .  S
Zr2128     O2130   2.438       .  S
Zr2128     O2131   2.402       .  S
Zr2128     O2132   2.397       .  S
O2129      H2166   0.990       .  S
O2130      H2161   0.990       .  S
O2130      H2175   0.990       .  S
O2132      H2158   0.964       .  S
O2133     Zr2143   2.377       .  S
O2134     Zr2143   2.367       .  S
O2134      H2159   0.966       .  S
C2135      C2561   1.497       .  S
C2136      C2721   1.473       .  S
C2137      C2441   1.489       .  S
O2138      H2174   0.990       .  S
O2139      C2141   1.291       .  A
O2140      C2141   1.284       .  A
C2141      C3930   1.491       .  S
O2142     Zr2143   2.435       .  S
O2142      H2171   0.990       .  S
Zr2143     O2146   2.435       .  S
Zr2143     O2147   2.439       .  S
Zr2143     O2148   2.412       .  S
O2144      C2149   1.285       .  A
O2145      H2162   0.990       .  S
O2145      H2177   0.990       .  S
O2146      H2163   0.990       .  S
O2147      H2167   0.990       .  S
O2147      H2176   0.990       .  S
O2148      C2149   1.281       .  A
C2149      C2421   1.477       .  S
O2150      H2169   0.990       .  S
O2150      H2173   0.990       .  S
O2151      H2165   0.990       .  S
O2151      H2172   0.990       .  S
O2152      C2156   1.288       .  A
O2153      C2156   1.278       .  A
O2154      H2164   0.990       .  S
O2155      H2168   0.990       .  S
C2156      C2461   1.479       .  S
Zr2179     O2180   2.440       .  S
Zr2179     O2181   2.444       .  S
Zr2179     O2182   2.439       .  S
Zr2179     O2185   2.444       .  S
Zr2179     O2187   2.384       .  S
Zr2179     O2188   2.379       .  S
Zr2179     O2189   2.413       .  S
Zr2179     O2190   2.403       .  S
O2180      H2236   0.990       .  S
O2180      H2244   0.990       .  S
O2181      C2201   1.286       .  A
O2182      C2203   1.285       .  A
O2183     Zr2193   2.392       .  S
O2183      C2202   1.278       .  A
O2184     Zr2192   2.439       .  S
O2184      C2203   1.287       .  A
O2185      C2202   1.286       .  A
O2186     Zr2194   2.422       .  S
O2186      C2201   1.282       .  A
O2187     Zr2192   2.398       .  S
O2187     Zr2194   2.381       .  S
O2188     Zr2193   2.385       .  S
O2188     Zr2194   2.372       .  S
O2188      H2223   0.964       .  S
O2189     Zr2192   2.407       .  S
O2189     Zr2209   2.380       .  S
O2189      H2226   0.962       .  S
O2190     Zr2193   2.385       .  S
O2190     Zr2209   2.393       .  S
Zr2191     O2216   2.440       .  S
Zr2191     O2210   2.446       .  S
Zr2191     O2218   2.467       .  S
Zr2191     O2206   2.426       .  S
Zr2191     O2197   2.406       .  S
Zr2191     O2198   2.412       .  S
Zr2191     O2199   2.383       .  S
Zr2191     O2200   2.381       .  S
Zr2192     O2211   2.437       .  S
Zr2192     O2204   2.434       .  S
Zr2192     O2205   2.447       .  S
Zr2192     O2198   2.397       .  S
Zr2192     O2199   2.394       .  S
Zr2193     O2195   2.437       .  S
Zr2193     O2217   2.439       .  S
Zr2193     O2219   2.386       .  S
Zr2193     O2197   2.386       .  S
Zr2193     O2200   2.389       .  S
Zr2194     O2220   2.434       .  S
Zr2194     O2221   2.436       .  S
Zr2194     O2196   2.437       .  S
Zr2194     O2197   2.402       .  S
Zr2194     O2198   2.379       .  S
O2195      H2232   0.990   1_556  S
O2196      H2227   0.990       .  S
O2196      H2241   0.990       .  S
O2198      H2224   0.962       .  S
O2199     Zr2209   2.375       .  S
O2200     Zr2209   2.371       .  S
O2200      H2225   0.966       .  S
C2201      C2610   1.485       .  S
C2202      C2850   1.479       .  S
C2203      C2450   1.484       .  S
O2204      H2240   0.990       .  S
O2205      C2207   1.288       .  A
O2206      C2207   1.286       .  A
C2207      C2861   1.481       .  S
O2208     Zr2209   2.434       .  S
O2208      H2237   0.990       .  S
Zr2209     O2212   2.436       .  S
Zr2209     O2213   2.437       .  S
Zr2209     O2214   2.408       .  S
O2210      C2215   1.286       .  A
O2211      H2228   0.990       .  S
O2211      H2243   0.990       .  S
O2212      H2229   0.990       .  S
O2213      H2233   0.990       .  S
O2213      H2242   0.989       .  S
O2214      C2215   1.280       .  A
C2215      C2530   1.476       .  S
O2216      H2235   0.990       .  S
O2216      H2239   0.990       .  S
O2217      H2231   0.990       .  S
O2217      H2238   0.990       .  S
O2218      C2222   1.290       .  A
O2219      C2222   1.277       .  A
O2220      H2230   0.990       .  S
O2221      H2234   0.990       .  S
C2222      C2410   1.480   1_556  S
Zr2245     O2246   2.441       .  S
Zr2245     O2247   2.445       .  S
Zr2245     O2248   2.443       .  S
Zr2245     O2251   2.448       .  S
Zr2245     O2253   2.386       .  S
Zr2245     O2254   2.384       .  S
Zr2245     O2255   2.414       .  S
Zr2245     O2256   2.397       .  S
O2246      H2302   0.990       .  S
O2246      H2310   0.990       .  S
O2247      C2267   1.286       .  A
O2248      C2269   1.286       .  A
O2249     Zr2259   2.383       .  S
O2249      C2268   1.275       .  A
O2250     Zr2258   2.453       .  S
O2250      C2269   1.289       .  A
O2251      C2268   1.286       .  A
O2252     Zr2260   2.427       .  S
O2252      C2267   1.283       .  A
O2253     Zr2258   2.399       .  S
O2253     Zr2260   2.385       .  S
O2254     Zr2259   2.382       .  S
O2254     Zr2260   2.378       .  S
O2254      H2289   0.966       .  S
O2255     Zr2258   2.410       .  S
O2255     Zr2275   2.393       .  S
O2255      H2292   0.962       .  S
O2256     Zr2259   2.383       .  S
O2256     Zr2275   2.384       .  S
Zr2257     O2282   2.438   1_545  S
Zr2257     O2276   2.446   1_545  S
Zr2257     O2284   2.474       .  S
Zr2257     O2272   2.432   1_545  S
Zr2257     O2263   2.406       .  S
Zr2257     O2264   2.418       .  S
Zr2257     O2265   2.386       .  S
Zr2257     O2266   2.373       .  S
Zr2258     O2277   2.436       .  S
Zr2258     O2270   2.435       .  S
Zr2258     O2271   2.447       .  S
Zr2258     O2264   2.408       .  S
Zr2258     O2265   2.401       .  S
Zr2259     O2261   2.437       .  S
Zr2259     O2283   2.437       .  S
Zr2259     O2285   2.378       .  S
Zr2259     O2263   2.384       .  S
Zr2259     O2266   2.391       .  S
Zr2260     O2286   2.437       .  S
Zr2260     O2287   2.435       .  S
Zr2260     O2262   2.438       .  S
Zr2260     O2263   2.402       .  S
Zr2260     O2264   2.392       .  S
O2261      H2298   0.991       .  S
O2262      H2293   0.990       .  S
O2262      H2307   0.990       .  S
O2264      H2290   0.964       .  S
O2265     Zr2275   2.375       .  S
O2266     Zr2275   2.371       .  S
O2266      H2291   0.965       .  S
C2267      C3001   1.488       .  S
C2268      C2890   1.468       .  S
C2269      C2381   1.491       .  S
O2270      H2306   0.990       .  S
O2271      C2273   1.287   1_545  A
O2272      C2273   1.285       .  A
C2273      C3830   1.482       .  S
O2274     Zr2275   2.439       .  S
O2274      H2303   0.991       .  S
Zr2275     O2278   2.440       .  S
Zr2275     O2279   2.442       .  S
Zr2275     O2280   2.407       .  S
O2276      C2281   1.284   1_565  A
O2277      H2294   0.990       .  S
O2277      H2309   0.990       .  S
O2278      H2295   0.990       .  S
O2279      H2299   0.990       .  S
O2279      H2308   0.990       .  S
O2280      C2281   1.280       .  A
C2281      C2430   1.474   1_545  S
O2282      H2301   0.990       .  S
O2282      H2305   0.990       .  S
O2283      H2297   0.990       .  S
O2283      H2304   0.990       .  S
O2284      C2288   1.292       .  A
O2285      C2288   1.274       .  A
O2286      H2296   0.990       .  S
O2287      H2300   0.990       .  S
C2288      C2510   1.484       .  S
Zr2311     O2312   2.443       .  S
Zr2311     O2313   2.456       .  S
Zr2311     O2314   2.449       .  S
Zr2311     O2317   2.463       .  S
Zr2311     O2319   2.391       .  S
Zr2311     O2320   2.383       .  S
Zr2311     O2321   2.420       .  S
Zr2311     O2322   2.402       .  S
O2312      H2368   0.990       .  S
O2312      H2376   0.991       .  S
O2313      C2333   1.287       .  A
O2314      C2335   1.286       .  A
O2315     Zr2325   2.399       .  S
O2315      C2334   1.279       .  A
O2316     Zr2324   2.443       .  S
O2316      C2335   1.287       .  A
O2317      C2334   1.290       .  A
O2318     Zr2326   2.430       .  S
O2318      C2333   1.283       .  A
O2319     Zr2324   2.405       .  S
O2319     Zr2326   2.382       .  S
O2320     Zr2325   2.384       .  S
O2320     Zr2326   2.375       .  S
O2320      H2355   0.966       .  S
O2321     Zr2324   2.409       .  S
O2321     Zr2341   2.388       .  S
O2321      H2358   0.961       .  S
O2322     Zr2325   2.386       .  S
O2322     Zr2341   2.390       .  S
Zr2323     O2348   2.440       .  S
Zr2323     O2342   2.456       .  S
Zr2323     O2350   2.460       .  S
Zr2323     O2338   2.426       .  S
Zr2323     O2329   2.411       .  S
Zr2323     O2330   2.417       .  S
Zr2323     O2331   2.379       .  S
Zr2323     O2332   2.377       .  S
Zr2324     O2343   2.436       .  S
Zr2324     O2336   2.435       .  S
Zr2324     O2337   2.456       .  S
Zr2324     O2330   2.401       .  S
Zr2324     O2331   2.393       .  S
Zr2325     O2327   2.437       .  S
Zr2325     O2349   2.436       .  S
Zr2325     O2351   2.391       .  S
Zr2325     O2329   2.383       .  S
Zr2325     O2332   2.392       .  S
Zr2326     O2352   2.435       .  S
Zr2326     O2353   2.435       .  S
Zr2326     O2328   2.438       .  S
Zr2326     O2329   2.408       .  S
Zr2326     O2330   2.390       .  S
O2327      H2364   0.991       .  S
O2328      H2359   0.990       .  S
O2328      H2373   0.990       .  S
O2330      H2356   0.963       .  S
O2331     Zr2341   2.377       .  S
O2332     Zr2341   2.365       .  S
O2332      H2357   0.965       .  S
C2333      C3101   1.494       .  S
C2334      C2941   1.485       .  S
C2335      C2390   1.489       .  S
O2336      H2372   0.990       .  S
O2337      C2339   1.290       .  A
O2338      C2339   1.284       .  A
C2339      C2710   1.485       .  S
O2340     Zr2341   2.438       .  S
O2340      H2369   0.990       .  S
Zr2341     O2344   2.439       .  S
Zr2341     O2345   2.439       .  S
Zr2341     O2346   2.418       .  S
O2342      C2347   1.287       .  A
O2343      H2360   0.990       .  S
O2343      H2375   0.990       .  S
O2344      H2361   0.990       .  S
O2345      H2365   0.990       .  S
O2345      H2374   0.990       .  S
O2346      C2347   1.282       .  A
C2347      C2490   1.483       .  S
O2348      H2367   0.990       .  S
O2348      H2371   0.990       .  S
O2349      H2363   0.990       .  S
O2349      H2370   0.990       .  S
O2350      C2354   1.289       .  A
O2351      C2354   1.277       .  A
O2352      H2362   0.990       .  S
O2353      H2366   0.990       .  S
C2354      C2401   1.482       .  S
C2377      C2378   1.405       .  A
C2377      C2382   1.402       .  A
C2377      H2387   1.083       .  S
C2378      C2383   1.490       .  S
C2378      C2379   1.407       .  A
C2379      C2380   1.402       .  A
C2379      H2384   1.083       .  S
C2380      C2381   1.407       .  A
C2380      H2385   1.083       .  S
C2381      C2382   1.409       .  A
C2382      H2386   1.083       .  S
C2383      C2388   1.406       .  A
C2383      C2392   1.406       .  A
C2388      C2389   1.402       .  A
C2388      H2393   1.083       .  S
C2389      C2390   1.409       .  A
C2389      H2394   1.083       .  S
C2390      C2391   1.407       .  A
C2391      C2392   1.400       .  A
C2391      H2395   1.083       .  S
C2392      H2396   1.083       .  S
C2397      C2398   1.409       .  A
C2397      C2402   1.404       .  A
C2397      H2407   1.083       .  S
C2398      C2403   1.478       .  S
C2398      C2399   1.397       .  A
C2399      C2400   1.389       .  A
C2399      H2404   1.083       .  S
C2400      C2401   1.410       .  A
C2400      H2405   1.083       .  S
C2401      C2402   1.404       .  A
C2402      H2406   1.083       .  S
C2403      C2408   1.398       .  A
C2403      C2412   1.408       .  A
C2408      C2409   1.393       .  A
C2408      H2413   1.083       .  S
C2409      C2410   1.411       .  A
C2409      H2414   1.083       .  S
C2410      C2411   1.403       .  A
C2411      C2412   1.401       .  A
C2411      H2415   1.083       .  S
C2412      H2416   1.083       .  S
C2417      C2418   1.403       .  A
C2417      C2422   1.406       .  A
C2417      H2427   1.083       .  S
C2418      C2423   1.474       .  S
C2418      C2419   1.401       .  A
C2419      C2420   1.392       .  A
C2419      H2424   1.084       .  S
C2420      C2421   1.404       .  A
C2420      H2425   1.084       .  S
C2421      C2422   1.408       .  A
C2422      H2426   1.083       .  S
C2423      C2428   1.404       .  A
C2423      C2432   1.402       .  A
C2428      C2429   1.405       .  A
C2428      H2433   1.083       .  S
C2429      C2430   1.406       .  A
C2429      H2434   1.083       .  S
C2430      C2431   1.403       .  A
C2431      C2432   1.392       .  A
C2431      H2435   1.084       .  S
C2432      H2436   1.084       .  S
C2437      C2438   1.407       .  A
C2437      C2442   1.403       .  A
C2437      H2447   1.083   1_565  S
C2438      C2443   1.489   1_565  S
C2438      C2439   1.405       .  A
C2439      C2440   1.398       .  A
C2439      H2444   1.083       .  S
C2440      C2441   1.407       .  A
C2440      H2445   1.083       .  S
C2441      C2442   1.409       .  A
C2442      H2446   1.083       .  S
C2443      C2448   1.405       .  A
C2443      C2452   1.407       .  A
C2448      C2449   1.400       .  A
C2448      H2453   1.083       .  S
C2449      C2450   1.407       .  A
C2449      H2454   1.083       .  S
C2450      C2451   1.406       .  A
C2451      C2452   1.399       .  A
C2451      H2455   1.083       .  S
C2452      H2456   1.083       .  S
C2457      C2458   1.399       .  A
C2457      C2462   1.389       .  A
C2457      H2467   1.083       .  S
C2458      C2463   1.481       .  S
C2458      C2459   1.410       .  A
C2459      C2460   1.402       .  A
C2459      H2464   1.083       .  S
C2460      C2461   1.404       .  A
C2460      H2465   1.083       .  S
C2461      C2462   1.409       .  A
C2462      H2466   1.083       .  S
C2463      C2468   1.410       .  A
C2463      C2472   1.399       .  A
C2468      C2469   1.400       .  A
C2468      H2473   1.083       .  S
C2469      C2470   1.402       .  A
C2469      H2474   1.083       .  S
C2470      C2471   1.411       .  A
C2471      C2472   1.391       .  A
C2471      H2475   1.083       .  S
C2472      H2476   1.083       .  S
C2477      C2478   1.407       .  A
C2477      C2482   1.410       .  A
C2477      H2487   1.083       .  S
C2478      C2483   1.482   1_565  S
C2478      C2479   1.400       .  A
C2479      C2480   1.393       .  A
C2479      H2484   1.084   1_565  S
C2480      C2481   1.407       .  A
C2480      H2485   1.084       .  S
C2481      C2482   1.409       .  A
C2482      H2486   1.083       .  S
C2483      C2488   1.405       .  A
C2483      C2492   1.403       .  A
C2488      C2489   1.408       .  A
C2488      H2493   1.083       .  S
C2489      C2490   1.409       .  A
C2489      H2494   1.083       .  S
C2490      C2491   1.404       .  A
C2491      C2492   1.396       .  A
C2491      H2495   1.083       .  S
C2492      H2496   1.084       .  S
C2497      C2498   1.410       .  A
C2497      C2502   1.403       .  A
C2497      H2507   1.083       .  S
C2498      C2503   1.484       .  S
C2498      C2499   1.400   1_545  A
C2499      C2500   1.394       .  A
C2499      H2504   1.083       .  S
C2500      C2501   1.409       .  A
C2500      H2505   1.083       .  S
C2501      C2502   1.403   1_565  A
C2502      H2506   1.083       .  S
C2503      C2508   1.399       .  A
C2503      C2512   1.410   1_545  A
C2508      C2509   1.393       .  A
C2508      H2513   1.083       .  S
C2509      C2510   1.412       .  A
C2509      H2514   1.083       .  S
C2510      C2511   1.402       .  A
C2511      C2512   1.404   1_545  A
C2511      H2515   1.083   1_545  S
C2512      H2516   1.083       .  S
C2517      C2518   1.402       .  A
C2517      C2522   1.394       .  A
C2517      H2527   1.084       .  S
C2518      C2523   1.472       .  S
C2518      C2519   1.403       .  A
C2519      C2520   1.403       .  A
C2519      H2524   1.083       .  S
C2520      C2521   1.405       .  A
C2520      H2525   1.083       .  S
C2521      C2522   1.402       .  A
C2522      H2526   1.084       .  S
C2523      C2528   1.400       .  A
C2523      C2532   1.403       .  A
C2528      C2529   1.393       .  A
C2528      H2533   1.084       .  S
C2529      C2530   1.404       .  A
C2529      H2534   1.084       .  S
C2530      C2531   1.407       .  A
C2531      C2532   1.404       .  A
C2531      H2535   1.083       .  S
C2532      H2536   1.083       .  S
C2537      C2538   1.406       .  A
C2537      C2542   1.399       .  A
C2537      H2547   1.083       .  S
C2538      C2543   1.484       .  S
C2538      C2539   1.404       .  A
C2539      C2540   1.398       .  A
C2539      H2544   1.083       .  S
C2540      C2541   1.408       .  A
C2540      H2545   1.083       .  S
C2541      C2542   1.406       .  A
C2542      H2546   1.083       .  S
C2543      C2548   1.406       .  A
C2543      C2552   1.404       .  A
C2548      C2549   1.398       .  A
C2548      H2553   1.083       .  S
C2549      C2550   1.405       .  A
C2549      H2554   1.083       .  S
C2550      C2551   1.407       .  A
C2551      C2552   1.398       .  A
C2551      H2555   1.083       .  S
C2552      H2556   1.083       .  S
C2557      C2558   1.407       .  A
C2557      C2562   1.407       .  A
C2557      H2567   1.083       .  S
C2558      C2563   1.493       .  S
C2558      C2559   1.405       .  A
C2559      C2560   1.399       .  A
C2559      H2564   1.083       .  S
C2560      C2561   1.407       .  A
C2560      H2565   1.083       .  S
C2561      C2562   1.411       .  A
C2562      H2566   1.083       .  S
C2563      C2568   1.410       .  A
C2563      C2572   1.404       .  A
C2568      C2569   1.409       .  A
C2568      H2573   1.083       .  S
C2569      C2570   1.406       .  A
C2569      H2574   1.083       .  S
C2570      C2571   1.406       .  A
C2571      C2572   1.396       .  A
C2571      H2575   1.084       .  S
C2572      H2576   1.083       .  S
C2577      C2578   1.402       .  A
C2577      C2582   1.395       .  A
C2577      H2587   1.083       .  S
C2578      C2583   1.485       .  S
C2578      C2579   1.407       .  A
C2579      C2580   1.404       .  A
C2579      H2584   1.083       .  S
C2580      C2581   1.407       .  A
C2580      H2585   1.083       .  S
C2581      C2582   1.407       .  A
C2582      H2586   1.083       .  S
C2583      C2588   1.406       .  A
C2583      C2592   1.404       .  A
C2588      C2589   1.400       .  A
C2588      H2593   1.083       .  S
C2589      C2590   1.405       .  A
C2589      H2594   1.083       .  S
C2590      C2591   1.409       .  A
C2591      C2592   1.401       .  A
C2591      H2595   1.083       .  S
C2592      H2596   1.083       .  S
C2597      C2598   1.409       .  A
C2597      C2602   1.405       .  A
C2597      H2607   1.083       .  S
C2598      C2603   1.490       .  S
C2598      C2599   1.404       .  A
C2599      C2600   1.395       .  A
C2599      H2604   1.083       .  S
C2600      C2601   1.407       .  A
C2600      H2605   1.083       .  S
C2601      C2602   1.406       .  A
C2602      H2606   1.083       .  S
C2603      C2608   1.406       .  A
C2603      C2612   1.407       .  A
C2608      C2609   1.402       .  A
C2608      H2613   1.083       .  S
C2609      C2610   1.407       .  A
C2609      H2614   1.083       .  S
C2610      C2611   1.406       .  A
C2611      C2612   1.399       .  A
C2611      H2615   1.083       .  S
C2612      H2616   1.083       .  S
C2617      C2618   1.402       .  A
C2617      C2622   1.394       .  A
C2617      H2627   1.084       .  S
C2618      C2623   1.476   1_545  S
C2618      C2619   1.403       .  A
C2619      C2620   1.405       .  A
C2619      H2624   1.083       .  S
C2620      C2621   1.408       .  A
C2620      H2625   1.083       .  S
C2621      C2622   1.404       .  A
C2622      H2626   1.083       .  S
C2623      C2628   1.404       .  A
C2623      C2632   1.401       .  A
C2628      C2629   1.406       .  A
C2628      H2633   1.083       .  S
C2629      C2630   1.407       .  A
C2629      H2634   1.083       .  S
C2630      C2631   1.404       .  A
C2631      C2632   1.393       .  A
C2631      H2635   1.084       .  S
C2632      H2636   1.084       .  S
C2637      C2638   1.413   1_565  A
C2637      C2642   1.404       .  A
C2637      H2647   1.082       .  S
C2638      C2643   1.498   1_545  S
C2638      C2639   1.407       .  A
C2639      C2640   1.396       .  A
C2639      H2644   1.082       .  S
C2640      C2641   1.404       .  A
C2640      H2645   1.084       .  S
C2641      C2642   1.402   1_545  A
C2642      H2646   1.083       .  S
C2643      C2648   1.404       .  A
C2643      C2652   1.413   1_565  A
C2648      C2649   1.396       .  A
C2648      H2653   1.082       .  S
C2649      C2650   1.410       .  A
C2649      H2654   1.083       .  S
C2650      C2651   1.402   1_565  A
C2651      C2652   1.403       .  A
C2651      H2655   1.083       .  S
C2652      H2656   1.082       .  S
C2657      C2658   1.400       .  A
C2657      C2662   1.395       .  A
C2657      H2667   1.083       .  S
C2658      C2663   1.479       .  S
C2658      C2659   1.406       .  A
C2659      C2660   1.401       .  A
C2659      H2664   1.083       .  S
C2660      C2661   1.406       .  A
C2660      H2665   1.083       .  S
C2661      C2662   1.408       .  A
C2662      H2666   1.083       .  S
C2663      C2668   1.406       .  A
C2663      C2672   1.401       .  A
C2668      C2669   1.401       .  A
C2668      H2673   1.083       .  S
C2669      C2670   1.405       .  A
C2669      H2674   1.083       .  S
C2670      C2671   1.408       .  A
C2671      C2672   1.395       .  A
C2671      H2675   1.083       .  S
C2672      H2676   1.083       .  S
C2677      C2678   1.412       .  A
C2677      C2682   1.404       .  A
C2677      H2687   1.083       .  S
C2678      C2683   1.483       .  S
C2678      C2679   1.398       .  A
C2679      C2680   1.385       .  A
C2679      H2684   1.083       .  S
C2680      C2681   1.409       .  A
C2680      H2685   1.083       .  S
C2681      C2682   1.405       .  A
C2682      H2686   1.083       .  S
C2683      C2688   1.402       .  A
C2683      C2692   1.411       .  A
C2688      C2689   1.393       .  A
C2688      H2693   1.083       .  S
C2689      C2690   1.407       .  A
C2689      H2694   1.084       .  S
C2690      C2691   1.399       .  A
C2691      C2692   1.397       .  A
C2691      H2695   1.083       .  S
C2692      H2696   1.082       .  S
C2697      C2698   1.406       .  A
C2697      C2702   1.403       .  A
C2697      H2707   1.083       .  S
C2698      C2703   1.482       .  S
C2698      C2699   1.402       .  A
C2699      C2700   1.394       .  A
C2699      H2704   1.083       .  S
C2700      C2701   1.409       .  A
C2700      H2705   1.083       .  S
C2701      C2702   1.407       .  A
C2702      H2706   1.083       .  S
C2703      C2708   1.405       .  A
C2703      C2712   1.403       .  A
C2708      C2709   1.402       .  A
C2708      H2713   1.083       .  S
C2709      C2710   1.407       .  A
C2709      H2714   1.083       .  S
C2710      C2711   1.408       .  A
C2711      C2712   1.395       .  A
C2711      H2715   1.083       .  S
C2712      H2716   1.083       .  S
C2717      C2718   1.409       .  A
C2717      C2722   1.399   1_545  A
C2717      H2727   1.083       .  S
C2718      C2723   1.480       .  S
C2718      C2719   1.400   1_545  A
C2719      C2720   1.391       .  A
C2719      H2724   1.083       .  S
C2720      C2721   1.408       .  A
C2720      H2725   1.083       .  S
C2721      C2722   1.401       .  A
C2722      H2726   1.083       .  S
C2723      C2728   1.399       .  A
C2723      C2732   1.409       .  A
C2728      C2729   1.392       .  A
C2728      H2733   1.083       .  S
C2729      C2730   1.409       .  A
C2729      H2734   1.083       .  S
C2730      C2731   1.403       .  A
C2731      C2732   1.401       .  A
C2731      H2735   1.083       .  S
C2732      H2736   1.083   1_545  S
C2737      C2738   1.404       .  A
C2737      C2742   1.396       .  A
C2737      H2747   1.083       .  S
C2738      C2743   1.490       .  S
C2738      C2739   1.412       .  A
C2739      C2740   1.405       .  A
C2739      H2744   1.083       .  S
C2740      C2741   1.401       .  A
C2740      H2745   1.083       .  S
C2741      C2742   1.403       .  A
C2742      H2746   1.084       .  S
C2743      C2748   1.403       .  A
C2743      C2752   1.411       .  A
C2748      C2749   1.394       .  A
C2748      H2753   1.083       .  S
C2749      C2750   1.405       .  A
C2749      H2754   1.084       .  S
C2750      C2751   1.404       .  A
C2751      C2752   1.406       .  A
C2751      H2755   1.083       .  S
C2752      H2756   1.083       .  S
C2757      C2758   1.404       .  A
C2757      C2762   1.394       .  A
C2757      H2767   1.083       .  S
C2758      C2763   1.491       .  S
C2758      C2759   1.412       .  A
C2759      C2760   1.404       .  A
C2759      H2764   1.082       .  S
C2760      C2761   1.401       .  A
C2760      H2765   1.083       .  S
C2761      C2762   1.405       .  A
C2762      H2766   1.084       .  S
C2763      C2768   1.412       .  A
C2763      C2772   1.402       .  A
C2768      C2769   1.402       .  A
C2768      H2773   1.082       .  S
C2769      C2770   1.403       .  A
C2769      H2774   1.083       .  S
C2770      C2771   1.409       .  A
C2771      C2772   1.393       .  A
C2771      H2775   1.083       .  S
C2772      H2776   1.082       .  S
C2777      C2778   1.408       .  A
C2777      C2782   1.405       .  A
C2777      H2787   1.083       .  S
C2778      C2783   1.494       .  S
C2778      C2779   1.406       .  A
C2779      C2780   1.397       .  A
C2779      H2784   1.083       .  S
C2780      C2781   1.405       .  A
C2780      H2785   1.083       .  S
C2781      C2782   1.408       .  A
C2782      H2786   1.083       .  S
C2783      C2788   1.408       .  A
C2783      C2792   1.406       .  A
C2788      C2789   1.405       .  A
C2788      H2793   1.083       .  S
C2789      C2790   1.409       .  A
C2789      H2794   1.083       .  S
C2790      C2791   1.407       .  A
C2791      C2792   1.399       .  A
C2791      H2795   1.083       .  S
C2792      H2796   1.083       .  S
C2797      C2798   1.403       .  A
C2797      C2802   1.395       .  A
C2797      H2807   1.083   1_565  S
C2798      C2803   1.482   1_565  S
C2798      C2799   1.406       .  A
C2799      C2800   1.401       .  A
C2799      H2804   1.083       .  S
C2800      C2801   1.407       .  A
C2800      H2805   1.083       .  S
C2801      C2802   1.407       .  A
C2802      H2806   1.083       .  S
C2803      C2808   1.405       .  A
C2803      C2812   1.403       .  A
C2808      C2809   1.400       .  A
C2808      H2813   1.083       .  S
C2809      C2810   1.407       .  A
C2809      H2814   1.083       .  S
C2810      C2811   1.407       .  A
C2811      C2812   1.396       .  A
C2811      H2815   1.083       .  S
C2812      H2816   1.083       .  S
C2817      C2818   1.406       .  A
C2817      C2822   1.410       .  A
C2817      H2827   1.083       .  S
C2818      C2823   1.482       .  S
C2818      C2819   1.402       .  A
C2819      C2820   1.391       .  A
C2819      H2824   1.084       .  S
C2820      C2821   1.403       .  A
C2820      H2825   1.084       .  S
C2821      C2822   1.409       .  A
C2822      H2826   1.083       .  S
C2823      C2828   1.402       .  A
C2823      C2832   1.406       .  A
C2828      C2829   1.393       .  A
C2828      H2833   1.084       .  S
C2829      C2830   1.405       .  A
C2829      H2834   1.084       .  S
C2830      C2831   1.409       .  A
C2831      C2832   1.409       .  A
C2831      H2835   1.083       .  S
C2832      H2836   1.083       .  S
C2837      C2838   1.409   1_545  A
C2837      C2842   1.396   1_545  A
C2837      H2847   1.082       .  S
C2838      C2843   1.487   1_564  S
C2838      C2839   1.405   1_554  A
C2839      C2840   1.395   1_556  A
C2839      H2844   1.082       .  S
C2840      C2841   1.405       .  A
C2840      H2845   1.083       .  S
C2841      C2842   1.402       .  A
C2842      H2846   1.083       .  S
C2843      C2848   1.403   1_556  A
C2843      C2852   1.410       .  A
C2848      C2849   1.390   1_554  A
C2848      H2853   1.082       .  S
C2849      C2850   1.407       .  A
C2849      H2854   1.083       .  S
C2850      C2851   1.404       .  A
C2851      C2852   1.400       .  A
C2851      H2855   1.083       .  S
C2852      H2856   1.082   1_545  S
C2857      C2858   1.405       .  A
C2857      C2862   1.403       .  A
C2857      H2867   1.083       .  S
C2858      C2863   1.479       .  S
C2858      C2859   1.402       .  A
C2859      C2860   1.392       .  A
C2859      H2864   1.083       .  S
C2860      C2861   1.406       .  A
C2860      H2865   1.083       .  S
C2861      C2862   1.408       .  A
C2862      H2866   1.083       .  S
C2863      C2868   1.404       .  A
C2863      C2872   1.402       .  A
C2868      C2869   1.400       .  A
C2868      H2873   1.083       .  S
C2869      C2870   1.407       .  A
C2869      H2874   1.083       .  S
C2870      C2871   1.408       .  A
C2871      C2872   1.394       .  A
C2871      H2875   1.083       .  S
C2872      H2876   1.083       .  S
C2877      C2878   1.408       .  A
C2877      C2882   1.397       .  A
C2877      H2887   1.083       .  S
C2878      C2883   1.474       .  S
C2878      C2879   1.399       .  A
C2879      C2880   1.388       .  A
C2879      H2884   1.083       .  S
C2880      C2881   1.407       .  A
C2880      H2885   1.083       .  S
C2881      C2882   1.403       .  A
C2882      H2886   1.083       .  S
C2883      C2888   1.400       .  A
C2883      C2892   1.408       .  A
C2888      C2889   1.390       .  A
C2888      H2893   1.083       .  S
C2889      C2890   1.407       .  A
C2889      H2894   1.083       .  S
C2890      C2891   1.400       .  A
C2891      C2892   1.395       .  A
C2891      H2895   1.083       .  S
C2892      H2896   1.083       .  S
C2897      C2898   1.406       .  A
C2897      C2902   1.405       .  A
C2897      H2907   1.083       .  S
C2898      C2903   1.489       .  S
C2898      C2899   1.404       .  A
C2899      C2900   1.399       .  A
C2899      H2904   1.083       .  S
C2900      C2901   1.408       .  A
C2900      H2905   1.083       .  S
C2901      C2902   1.410       .  A
C2902      H2906   1.083       .  S
C2903      C2908   1.407       .  A
C2903      C2912   1.403   1_554  A
C2908      C2909   1.407       .  A
C2908      H2913   1.083       .  S
C2909      C2910   1.410   1_554  A
C2909      H2914   1.083       .  S
C2910      C2911   1.408       .  A
C2911      C2912   1.397       .  A
C2911      H2915   1.083       .  S
C2912      H2916   1.083       .  S
C2917      C2918   1.404       .  A
C2917      C2922   1.397       .  A
C2917      H2927   1.083       .  S
C2918      C2923   1.480       .  S
C2918      C2919   1.404       .  A
C2919      C2920   1.396       .  A
C2919      H2924   1.083       .  S
C2920      C2921   1.405       .  A
C2920      H2925   1.083       .  S
C2921      C2922   1.408       .  A
C2922      H2926   1.083       .  S
C2923      C2928   1.404       .  A
C2923      C2932   1.404       .  A
C2928      C2929   1.397       .  A
C2928      H2933   1.083       .  S
C2929      C2930   1.405       .  A
C2929      H2934   1.083       .  S
C2930      C2931   1.406       .  A
C2931      C2932   1.397       .  A
C2931      H2935   1.083       .  S
C2932      H2936   1.083       .  S
C2937      C2938   1.402       .  A
C2937      C2942   1.393       .  A
C2937      H2947   1.083       .  S
C2938      C2943   1.489       .  S
C2938      C2939   1.411       .  A
C2939      C2940   1.403       .  A
C2939      H2944   1.083       .  S
C2940      C2941   1.404       .  A
C2940      H2945   1.083       .  S
C2941      C2942   1.409       .  A
C2942      H2946   1.083       .  S
C2943      C2948   1.410       .  A
C2943      C2952   1.404       .  A
C2948      C2949   1.400       .  A
C2948      H2953   1.082       .  S
C2949      C2950   1.403       .  A
C2949      H2954   1.083       .  S
C2950      C2951   1.406       .  A
C2951      C2952   1.395       .  A
C2951      H2955   1.083       .  S
C2952      H2956   1.083       .  S
C2957      C2958   1.405       .  A
C2957      C2962   1.407       .  A
C2957      H2967   1.083       .  S
C2958      C2963   1.478       .  S
C2958      C2959   1.401       .  A
C2959      C2960   1.392       .  A
C2959      H2964   1.084       .  S
C2960      C2961   1.405       .  A
C2960      H2965   1.084       .  S
C2961      C2962   1.407       .  A
C2962      H2966   1.083       .  S
C2963      C2968   1.401       .  A
C2963      C2972   1.405       .  A
C2968      C2969   1.392       .  A
C2968      H2973   1.084       .  S
C2969      C2970   1.405       .  A
C2969      H2974   1.084       .  S
C2970      C2971   1.408       .  A
C2971      C2972   1.407       .  A
C2971      H2975   1.083       .  S
C2972      H2976   1.083       .  S
C2977      C2978   1.412       .  A
C2977      C2982   1.399       .  A
C2977      H2987   1.082       .  S
C2978      C2983   1.485       .  S
C2978      C2979   1.401       .  A
C2979      C2980   1.389       .  A
C2979      H2984   1.082       .  S
C2980      C2981   1.409       .  A
C2980      H2985   1.083       .  S
C2981      C2982   1.402       .  A
C2982      H2986   1.083       .  S
C2983      C2988   1.404       .  A
C2983      C2992   1.412       .  A
C2988      C2989   1.390       .  A
C2988      H2993   1.082       .  S
C2989      C2990   1.403       .  A
C2989      H2994   1.084       .  S
C2990      C2991   1.400       .  A
C2991      C2992   1.399       .  A
C2991      H2995   1.083       .  S
C2992      H2996   1.082       .  S
C2997      C2998   1.406       .  A
C2997      C3002   1.402       .  A
C2997      H3007   1.083       .  S
C2998      C3003   1.492       .  S
C2998      C2999   1.407       .  A
C2999      C3000   1.401       .  A
C2999      H3004   1.083       .  S
C3000      C3001   1.406       .  A
C3000      H3005   1.083       .  S
C3001      C3002   1.408       .  A
C3002      H3006   1.083       .  S
C3003      C3008   1.403       .  A
C3003      C3012   1.409       .  A
C3008      C3009   1.397       .  A
C3008      H3013   1.083       .  S
C3009      C3010   1.410       .  A
C3009      H3014   1.083       .  S
C3010      C3011   1.407       .  A
C3011      C3012   1.407       .  A
C3011      H3015   1.083       .  S
C3012      H3016   1.083       .  S
C3017      C3018   1.407       .  A
C3017      C3022   1.401       .  A
C3017      H3027   1.083       .  S
C3018      C3023   1.483       .  S
C3018      C3019   1.402       .  A
C3019      C3020   1.397       .  A
C3019      H3024   1.083       .  S
C3020      C3021   1.408       .  A
C3020      H3025   1.083       .  S
C3021      C3022   1.405       .  A
C3022      H3026   1.083       .  S
C3023      C3028   1.403       .  A
C3023      C3032   1.406       .  A
C3028      C3029   1.397       .  A
C3028      H3033   1.083       .  S
C3029      C3030   1.407       .  A
C3029      H3034   1.083       .  S
C3030      C3031   1.407       .  A
C3031      C3032   1.401       .  A
C3031      H3035   1.083       .  S
C3032      H3036   1.083       .  S
C3037      C3038   1.410       .  A
C3037      C3042   1.400       .  A
C3037      H3047   1.083       .  S
C3038      C3043   1.482       .  S
C3038      C3039   1.400       .  A
C3039      C3040   1.390       .  A
C3039      H3044   1.083       .  S
C3040      C3041   1.407       .  A
C3040      H3045   1.083       .  S
C3041      C3042   1.403       .  A
C3042      H3046   1.083       .  S
C3043      C3048   1.400       .  A
C3043      C3052   1.410       .  A
C3048      C3049   1.390       .  A
C3048      H3053   1.083       .  S
C3049      C3050   1.409       .  A
C3049      H3054   1.083       .  S
C3050      C3051   1.402       .  A
C3051      C3052   1.401       .  A
C3051      H3055   1.083       .  S
C3052      H3056   1.083       .  S
C3057      C3058   1.404       .  A
C3057      C3062   1.406       .  A
C3057      H3067   1.083       .  S
C3058      C3063   1.478       .  S
C3058      C3059   1.402       .  A
C3059      C3060   1.393       .  A
C3059      H3064   1.084       .  S
C3060      C3061   1.405       .  A
C3060      H3065   1.083       .  S
C3061      C3062   1.409       .  A
C3062      H3066   1.083       .  S
C3063      C3068   1.402       .  A
C3063      C3072   1.405       .  A
C3068      C3069   1.393       .  A
C3068      H3073   1.084       .  S
C3069      C3070   1.402       .  A
C3069      H3074   1.084       .  S
C3070      C3071   1.407       .  A
C3071      C3072   1.407       .  A
C3071      H3075   1.083       .  S
C3072      H3076   1.083       .  S
C3077      C3078   1.399       .  A
C3077      C3082   1.390       .  A
C3077      H3087   1.083       .  S
C3078      C3083   1.481       .  S
C3078      C3079   1.411       .  A
C3079      C3080   1.400       .  A
C3079      H3084   1.083       .  S
C3080      C3081   1.402       .  A
C3080      H3085   1.083       .  S
C3081      C3082   1.411       .  A
C3082      H3086   1.083       .  S
C3083      C3088   1.411       .  A
C3083      C3092   1.400       .  A
C3088      C3089   1.403       .  A
C3088      H3093   1.083       .  S
C3089      C3090   1.403       .  A
C3089      H3094   1.083       .  S
C3090      C3091   1.407       .  A
C3091      C3092   1.387       .  A
C3091      H3095   1.083       .  S
C3092      H3096   1.083       .  S
C3097      C3098   1.407       .  A
C3097      C3102   1.403       .  A
C3097      H3107   1.083       .  S
C3098      C3103   1.496       .  S
C3098      C3099   1.408       .  A
C3099      C3100   1.405       .  A
C3099      H3104   1.083       .  S
C3100      C3101   1.407       .  A
C3100      H3105   1.083       .  S
C3101      C3102   1.409       .  A
C3102      H3106   1.083       .  S
C3103      C3108   1.406       .  A
C3103      C3112   1.409       .  A
C3108      C3109   1.401       .  A
C3108      H3113   1.083       .  S
C3109      C3110   1.408       .  A
C3109      H3114   1.083       .  S
C3110      C3111   1.407       .  A
C3111      C3112   1.405       .  A
C3111      H3115   1.083       .  S
C3112      H3116   1.083       .  S
C3117      C3118   1.407       .  A
C3117      C3122   1.399       .  A
C3117      H3127   1.083       .  S
C3118      C3123   1.478       .  S
C3118      C3119   1.400       .  A
C3119      C3120   1.394       .  A
C3119      H3124   1.083       .  S
C3120      C3121   1.409       .  A
C3120      H3125   1.082       .  S
C3121      C3122   1.405       .  A
C3122      H3126   1.083       .  S
C3123      C3128   1.399       .  A
C3123      C3132   1.409       .  A
C3128      C3129   1.391       .  A
C3128      H3133   1.083       .  S
C3129      C3130   1.407       .  A
C3129      H3134   1.083       .  S
C3130      C3131   1.403       .  A
C3131      C3132   1.402       .  A
C3131      H3135   1.083       .  S
C3132      H3136   1.083       .  S
C3137      C3138   1.405       .  A
C3137      C3142   1.408       .  A
C3137      H3147   1.083       .  S
C3138      C3143   1.483       .  S
C3138      C3139   1.403       .  A
C3139      C3140   1.395       .  A
C3139      H3144   1.084       .  S
C3140      C3141   1.405       .  A
C3140      H3145   1.083       .  S
C3141      C3142   1.409       .  A
C3142      H3146   1.083       .  S
C3143      C3148   1.407       .  A
C3143      C3152   1.402       .  A
C3148      C3149   1.410       .  A
C3148      H3153   1.083       .  S
C3149      C3150   1.409       .  A
C3149      H3154   1.083       .  S
C3150      C3151   1.404       .  A
C3151      C3152   1.394       .  A
C3151      H3155   1.083       .  S
C3152      H3156   1.084       .  S
C3157      C3158   1.407       .  A
C3157      C3162   1.403       .  A
C3157      H3167   1.083       .  S
C3158      C3163   1.486       .  S
C3158      C3159   1.403       .  A
C3159      C3160   1.396       .  A
C3159      H3164   1.083       .  S
C3160      C3161   1.407       .  A
C3160      H3165   1.083       .  S
C3161      C3162   1.405       .  A
C3162      H3166   1.083       .  S
C3163      C3168   1.405       .  A
C3163      C3172   1.406       .  A
C3168      C3169   1.401       .  A
C3168      H3173   1.083       .  S
C3169      C3170   1.407       .  A
C3169      H3174   1.083       .  S
C3170      C3171   1.407       .  A
C3171      C3172   1.399       .  A
C3171      H3175   1.083       .  S
C3172      H3176   1.083       .  S
C3177      C3178   1.410       .  A
C3177      C3182   1.402       .  A
C3177      H3187   1.083       .  S
C3178      C3183   1.483   1_556  S
C3178      C3179   1.400   1_556  A
C3179      C3180   1.390   1_554  A
C3179      H3184   1.083       .  S
C3180      C3181   1.410       .  A
C3180      H3185   1.083   1_556  S
C3181      C3182   1.403       .  A
C3182      H3186   1.083       .  S
C3183      C3188   1.402       .  A
C3183      C3192   1.409       .  A
C3188      C3189   1.393       .  A
C3188      H3193   1.083   1_554  S
C3189      C3190   1.407       .  A
C3189      H3194   1.083       .  S
C3190      C3191   1.403       .  A
C3191      C3192   1.398       .  A
C3191      H3195   1.083       .  S
C3192      H3196   1.083       .  S
C3197      C3198   1.406       .  A
C3197      C3202   1.403       .  A
C3197      H3207   1.083       .  S
C3198      C3203   1.489       .  S
C3198      C3199   1.404       .  A
C3199      C3200   1.405       .  A
C3199      H3204   1.083       .  S
C3200      C3201   1.410       .  A
C3200      H3205   1.083       .  S
C3201      C3202   1.408       .  A
C3202      H3206   1.083       .  S
C3203      C3208   1.401       .  A
C3203      C3212   1.408       .  A
C3208      C3209   1.398       .  A
C3208      H3213   1.083       .  S
C3209      C3210   1.412       .  A
C3209      H3214   1.083       .  S
C3210      C3211   1.409       .  A
C3211      C3212   1.410       .  A
C3211      H3215   1.083       .  S
C3212      H3216   1.083       .  S
C3217      C3218   1.405       .  A
C3217      C3222   1.399       .  A
C3217      H3227   1.083       .  S
C3218      C3223   1.495       .  S
C3218      C3219   1.410       .  A
C3219      C3220   1.406       .  A
C3219      H3224   1.083       .  S
C3220      C3221   1.406       .  A
C3220      H3225   1.083       .  S
C3221      C3222   1.409       .  A
C3222      H3226   1.083       .  S
C3223      C3228   1.408       .  A
C3223      C3232   1.406       .  A
C3228      C3229   1.403       .  A
C3228      H3233   1.083       .  S
C3229      C3230   1.408       .  A
C3229      H3234   1.083       .  S
C3230      C3231   1.408       .  A
C3231      C3232   1.402       .  A
C3231      H3235   1.083       .  S
C3232      H3236   1.083       .  S
C3237      C3238   1.403       .  A
C3237      C3242   1.394       .  A
C3237      H3247   1.083       .  S
C3238      C3243   1.486       .  S
C3238      C3239   1.409       .  A
C3239      C3240   1.400       .  A
C3239      H3244   1.083       .  S
C3240      C3241   1.404       .  A
C3240      H3245   1.083       .  S
C3241      C3242   1.406       .  A
C3242      H3246   1.083       .  S
C3243      C3248   1.411       .  A
C3243      C3252   1.401       .  A
C3248      C3249   1.401       .  A
C3248      H3253   1.083       .  S
C3249      C3250   1.403       .  A
C3249      H3254   1.083       .  S
C3250      C3251   1.409       .  A
C3251      C3252   1.392       .  A
C3251      H3255   1.083       .  S
C3252      H3256   1.083       .  S
C3257      C3258   1.405       .  A
C3257      C3262   1.401       .  A
C3257      H3267   1.083       .  S
C3258      C3263   1.489       .  S
C3258      C3259   1.405       .  A
C3259      C3260   1.403       .  A
C3259      H3264   1.083       .  S
C3260      C3261   1.410       .  A
C3260      H3265   1.083       .  S
C3261      C3262   1.406       .  A
C3262      H3266   1.083       .  S
C3263      C3268   1.405       .  A
C3263      C3272   1.404       .  A
C3268      C3269   1.402       .  A
C3268      H3273   1.083       .  S
C3269      C3270   1.408       .  A
C3269      H3274   1.083       .  S
C3270      C3271   1.411       .  A
C3271      C3272   1.404       .  A
C3271      H3275   1.083       .  S
C3272      H3276   1.083       .  S
C3277      C3278   1.410       .  A
C3277      C3282   1.403       .  A
C3277      H3287   1.083       .  S
C3278      C3283   1.483       .  S
C3278      C3279   1.399       .  A
C3279      C3280   1.392       .  A
C3279      H3284   1.083       .  S
C3280      C3281   1.410       .  A
C3280      H3285   1.083       .  S
C3281      C3282   1.403       .  A
C3282      H3286   1.083       .  S
C3283      C3288   1.399       .  A
C3283      C3292   1.410       .  A
C3288      C3289   1.393       .  A
C3288      H3293   1.083       .  S
C3289      C3290   1.413       .  A
C3289      H3294   1.083       .  S
C3290      C3291   1.403       .  A
C3291      C3292   1.403       .  A
C3291      H3295   1.083       .  S
C3292      H3296   1.083       .  S
C3297      C3298   1.406       .  A
C3297      C3302   1.405       .  A
C3297      H3307   1.083       .  S
C3298      C3303   1.483       .  S
C3298      C3299   1.401       .  A
C3299      C3300   1.393       .  A
C3299      H3304   1.083       .  S
C3300      C3301   1.407       .  A
C3300      H3305   1.083       .  S
C3301      C3302   1.409       .  A
C3302      H3306   1.083       .  S
C3303      C3308   1.405       .  A
C3303      C3312   1.403       .  A
C3308      C3309   1.403       .  A
C3308      H3313   1.083       .  S
C3309      C3310   1.408       .  A
C3309      H3314   1.083       .  S
C3310      C3311   1.407       .  A
C3311      C3312   1.395       .  A
C3311      H3315   1.083       .  S
C3312      H3316   1.083       .  S
C3317      C3318   1.406       .  A
C3317      C3322   1.403       .  A
C3317      H3327   1.083       .  S
C3318      C3323   1.481       .  S
C3318      C3319   1.402       .  A
C3319      C3320   1.392       .  A
C3319      H3324   1.083       .  S
C3320      C3321   1.407       .  A
C3320      H3325   1.083       .  S
C3321      C3322   1.408       .  A
C3322      H3326   1.083       .  S
C3323      C3328   1.405       .  A
C3323      C3332   1.405       .  A
C3328      C3329   1.401       .  A
C3328      H3333   1.083       .  S
C3329      C3330   1.405       .  A
C3329      H3334   1.083       .  S
C3330      C3331   1.404       .  A
C3331      C3332   1.394       .  A
C3331      H3335   1.083       .  S
C3332      H3336   1.083       .  S
C3337      C3338   1.401       .  A
C3337      C3342   1.390       .  A
C3337      H3347   1.083       .  S
C3338      C3343   1.484       .  S
C3338      C3339   1.411       .  A
C3339      C3340   1.400       .  A
C3339      H3344   1.082       .  S
C3340      C3341   1.402       .  A
C3340      H3345   1.083       .  S
C3341      C3342   1.408       .  A
C3342      H3346   1.083       .  S
C3343      C3348   1.410       .  A
C3343      C3352   1.402       .  A
C3348      C3349   1.398       .  A
C3348      H3353   1.082       .  S
C3349      C3350   1.403       .  A
C3349      H3354   1.083       .  S
C3350      C3351   1.408       .  A
C3351      C3352   1.391       .  A
C3351      H3355   1.083       .  S
C3352      H3356   1.083       .  S
C3357      C3358   1.412       .  A
C3357      C3362   1.400       .  A
C3357      H3367   1.081       .  S
C3358      C3363   1.500       .  S
C3358      C3359   1.411       .  A
C3359      C3360   1.401   1_556  A
C3359      H3364   1.082   1_556  S
C3360      C3361   1.402       .  A
C3360      H3365   1.084       .  S
C3361      C3362   1.400   1_554  A
C3362      H3366   1.083       .  S
C3363      C3368   1.409       .  A
C3363      C3372   1.411       .  A
C3368      C3369   1.399       .  A
C3368      H3373   1.082       .  S
C3369      C3370   1.404       .  A
C3369      H3374   1.083       .  S
C3370      C3371   1.404       .  A
C3371      C3372   1.402       .  A
C3371      H3375   1.083       .  S
C3372      H3376   1.082   1_556  S
C3377      C3378   1.402       .  A
C3377      C3382   1.394       .  A
C3377      H3387   1.084       .  S
C3378      C3383   1.478       .  S
C3378      C3379   1.404       .  A
C3379      C3380   1.406       .  A
C3379      H3384   1.083       .  S
C3380      C3381   1.406       .  A
C3380      H3385   1.083       .  S
C3381      C3382   1.403       .  A
C3382      H3386   1.084       .  S
C3383      C3388   1.400       .  A
C3383      C3392   1.405       .  A
C3388      C3389   1.392       .  A
C3388      H3393   1.084       .  S
C3389      C3390   1.406       .  A
C3389      H3394   1.084       .  S
C3390      C3391   1.408       .  A
C3391      C3392   1.408       .  A
C3391      H3395   1.083       .  S
C3392      H3396   1.083       .  S
C3397      C3398   1.407       .  A
C3397      C3402   1.400       .  A
C3397      H3407   1.083       .  S
C3398      C3403   1.488       .  S
C3398      C3399   1.404       .  A
C3399      C3400   1.398       .  A
C3399      H3404   1.083       .  S
C3400      C3401   1.408       .  A
C3400      H3405   1.083       .  S
C3401      C3402   1.406       .  A
C3402      H3406   1.083       .  S
C3403      C3408   1.406       .  A
C3403      C3412   1.407       .  A
C3408      C3409   1.398       .  A
C3408      H3413   1.083       .  S
C3409      C3410   1.405       .  A
C3409      H3414   1.083       .  S
C3410      C3411   1.406       .  A
C3411      C3412   1.401       .  A
C3411      H3415   1.083       .  S
C3412      H3416   1.083       .  S
C3417      C3418   1.401       .  A
C3417      C3422   1.393       .  A
C3417      H3427   1.083       .  S
C3418      C3423   1.480       .  S
C3418      C3419   1.407       .  A
C3419      C3420   1.400       .  A
C3419      H3424   1.083       .  S
C3420      C3421   1.404       .  A
C3420      H3425   1.083       .  S
C3421      C3422   1.409       .  A
C3422      H3426   1.083       .  S
C3423      C3428   1.407       .  A
C3423      C3432   1.402       .  A
C3428      C3429   1.398       .  A
C3428      H3433   1.083       .  S
C3429      C3430   1.403       .  A
C3429      H3434   1.083       .  S
C3430      C3431   1.409       .  A
C3431      C3432   1.394       .  A
C3431      H3435   1.083       .  S
C3432      H3436   1.083       .  S
C3437      C3438   1.401       .  A
C3437      C3442   1.397       .  A
C3437      H3447   1.083       .  S
C3438      C3443   1.491       .  S
C3438      C3439   1.412       .  A
C3439      C3440   1.404       .  A
C3439      H3444   1.083       .  S
C3440      C3441   1.402       .  A
C3440      H3445   1.083       .  S
C3441      C3442   1.412       .  A
C3442      H3446   1.083       .  S
C3443      C3448   1.412       .  A
C3443      C3452   1.400       .  A
C3448      C3449   1.407       .  A
C3448      H3453   1.083       .  S
C3449      C3450   1.404       .  A
C3449      H3454   1.083       .  S
C3450      C3451   1.410       .  A
C3451      C3452   1.392       .  A
C3451      H3455   1.083       .  S
C3452      H3456   1.083       .  S
C3457      C3458   1.409       .  A
C3457      C3462   1.405       .  A
C3457      H3467   1.083       .  S
C3458      C3463   1.492       .  S
C3458      C3459   1.405       .  A
C3459      C3460   1.394       .  A
C3459      H3464   1.083       .  S
C3460      C3461   1.407       .  A
C3460      H3465   1.083       .  S
C3461      C3462   1.407       .  A
C3462      H3466   1.083       .  S
C3463      C3468   1.408       .  A
C3463      C3472   1.406       .  A
C3468      C3469   1.403       .  A
C3468      H3473   1.083       .  S
C3469      C3470   1.407       .  A
C3469      H3474   1.083       .  S
C3470      C3471   1.407       .  A
C3471      C3472   1.397       .  A
C3471      H3475   1.083       .  S
C3472      H3476   1.083       .  S
C3477      C3478   1.404       .  A
C3477      C3482   1.400       .  A
C3477      H3487   1.083       .  S
C3478      C3483   1.480       .  S
C3478      C3479   1.404       .  A
C3479      C3480   1.402       .  A
C3479      H3484   1.083       .  S
C3480      C3481   1.405       .  A
C3480      H3485   1.083       .  S
C3481      C3482   1.403       .  A
C3482      H3486   1.083       .  S
C3483      C3488   1.404       .  A
C3483      C3492   1.404       .  A
C3488      C3489   1.398       .  A
C3488      H3493   1.083       .  S
C3489      C3490   1.405       .  A
C3489      H3494   1.083       .  S
C3490      C3491   1.406       .  A
C3491      C3492   1.403       .  A
C3491      H3495   1.083       .  S
C3492      H3496   1.083       .  S
C3497      C3498   1.398       .  A
C3497      C3502   1.391       .  A
C3497      H3507   1.083       .  S
C3498      C3503   1.478       .  S
C3498      C3499   1.409       .  A
C3499      C3500   1.400       .  A
C3499      H3504   1.083       .  S
C3500      C3501   1.402       .  A
C3500      H3505   1.083       .  S
C3501      C3502   1.409       .  A
C3502      H3506   1.083       .  S
C3503      C3508   1.410       .  A
C3503      C3512   1.397       .  A
C3508      C3509   1.402       .  A
C3508      H3513   1.083       .  S
C3509      C3510   1.402       .  A
C3509      H3514   1.083       .  S
C3510      C3511   1.410       .  A
C3511      C3512   1.389       .  A
C3511      H3515   1.083       .  S
C3512      H3516   1.083       .  S
C3517      C3518   1.404       .  A
C3517      C3522   1.398       .  A
C3517      H3527   1.083       .  S
C3518      C3523   1.489       .  S
C3518      C3519   1.407       .  A
C3519      C3520   1.404       .  A
C3519      H3524   1.083       .  S
C3520      C3521   1.408       .  A
C3520      H3525   1.083       .  S
C3521      C3522   1.409       .  A
C3522      H3526   1.083       .  S
C3523      C3528   1.405       .  A
C3523      C3532   1.407       .  A
C3528      C3529   1.398       .  A
C3528      H3533   1.083       .  S
C3529      C3530   1.408       .  A
C3529      H3534   1.083       .  S
C3530      C3531   1.406       .  A
C3531      C3532   1.403       .  A
C3531      H3535   1.083       .  S
C3532      H3536   1.083       .  S
C3537      C3538   1.405       .  A
C3537      C3542   1.401       .  A
C3537      H3547   1.083       .  S
C3538      C3543   1.485       .  S
C3538      C3539   1.405       .  A
C3539      C3540   1.397       .  A
C3539      H3544   1.083       .  S
C3540      C3541   1.405       .  A
C3540      H3545   1.083       .  S
C3541      C3542   1.408       .  A
C3542      H3546   1.083       .  S
C3543      C3548   1.404       .  A
C3543      C3552   1.406       .  A
C3548      C3549   1.400       .  A
C3548      H3553   1.083       .  S
C3549      C3550   1.408       .  A
C3549      H3554   1.083       .  S
C3550      C3551   1.404       .  A
C3551      C3552   1.398       .  A
C3551      H3555   1.083       .  S
C3552      H3556   1.083       .  S
C3557      C3558   1.406       .  A
C3557      C3562   1.409       .  A
C3557      H3567   1.083       .  S
C3558      C3563   1.482       .  S
C3558      C3559   1.402       .  A
C3559      C3560   1.397       .  A
C3559      H3564   1.083       .  S
C3560      C3561   1.404       .  A
C3560      H3565   1.083       .  S
C3561      C3562   1.409       .  A
C3562      H3566   1.083       .  S
C3563      C3568   1.406       .  A
C3563      C3572   1.403       .  A
C3568      C3569   1.408       .  A
C3568      H3573   1.083       .  S
C3569      C3570   1.407       .  A
C3569      H3574   1.083       .  S
C3570      C3571   1.405       .  A
C3571      C3572   1.398       .  A
C3571      H3575   1.083       .  S
C3572      H3576   1.083       .  S
C3577      C3578   1.405       .  A
C3577      C3582   1.401       .  A
C3577      H3587   1.083       .  S
C3578      C3583   1.487       .  S
C3578      C3579   1.406       .  A
C3579      C3580   1.399       .  A
C3579      H3584   1.083       .  S
C3580      C3581   1.406       .  A
C3580      H3585   1.083       .  S
C3581      C3582   1.407       .  A
C3582      H3586   1.083       .  S
C3583      C3588   1.407       .  A
C3583      C3592   1.404       .  A
C3588      C3589   1.403       .  A
C3588      H3593   1.083       .  S
C3589      C3590   1.405       .  A
C3589      H3594   1.083       .  S
C3590      C3591   1.406       .  A
C3591      C3592   1.397       .  A
C3591      H3595   1.083       .  S
C3592      H3596   1.083       .  S
C3597      C3598   1.406       .  A
C3597      C3602   1.399       .  A
C3597      H3607   1.083       .  S
C3598      C3603   1.489       .  S
C3598      C3599   1.408       .  A
C3599      C3600   1.400       .  A
C3599      H3604   1.083       .  S
C3600      C3601   1.405       .  A
C3600      H3605   1.083       .  S
C3601      C3602   1.405       .  A
C3602      H3606   1.083       .  S
C3603      C3608   1.403       .  A
C3603      C3612   1.409       .  A
C3608      C3609   1.396       .  A
C3608      H3613   1.083       .  S
C3609      C3610   1.408       .  A
C3609      H3614   1.083       .  S
C3610      C3611   1.406       .  A
C3611      C3612   1.403       .  A
C3611      H3615   1.083       .  S
C3612      H3616   1.083       .  S
C3617      C3618   1.403       .  A
C3617      C3622   1.396   1_655  A
C3617      H3627   1.083       .  S
C3618      C3623   1.481       .  S
C3618      C3619   1.405   1_655  A
C3619      C3620   1.399       .  A
C3619      H3624   1.083       .  S
C3620      C3621   1.406       .  A
C3620      H3625   1.083       .  S
C3621      C3622   1.407       .  A
C3622      H3626   1.083       .  S
C3623      C3628   1.405       .  A
C3623      C3632   1.403       .  A
C3628      C3629   1.398       .  A
C3628      H3633   1.083       .  S
C3629      C3630   1.406       .  A
C3629      H3634   1.083       .  S
C3630      C3631   1.407       .  A
C3631      C3632   1.395       .  A
C3631      H3635   1.083       .  S
C3632      H3636   1.083       .  S
C3637      C3638   1.405       .  A
C3637      C3642   1.402       .  A
C3637      H3647   1.083       .  S
C3638      C3643   1.484       .  S
C3638      C3639   1.404       .  A
C3639      C3640   1.396       .  A
C3639      H3644   1.083       .  S
C3640      C3641   1.408       .  A
C3640      H3645   1.083       .  S
C3641      C3642   1.408       .  A
C3642      H3646   1.083       .  S
C3643      C3648   1.406       .  A
C3643      C3652   1.403   1_554  A
C3648      C3649   1.404       .  A
C3648      H3653   1.083       .  S
C3649      C3650   1.407   1_554  A
C3649      H3654   1.083       .  S
C3650      C3651   1.407       .  A
C3651      C3652   1.394       .  A
C3651      H3655   1.083       .  S
C3652      H3656   1.083       .  S
C3657      C3658   1.404       .  A
C3657      C3662   1.400       .  A
C3657      H3667   1.083       .  S
C3658      C3663   1.485       .  S
C3658      C3659   1.405       .  A
C3659      C3660   1.400       .  A
C3659      H3664   1.083       .  S
C3660      C3661   1.407       .  A
C3660      H3665   1.083       .  S
C3661      C3662   1.410       .  A
C3662      H3666   1.083       .  S
C3663      C3668   1.403   1_556  A
C3663      C3672   1.407       .  A
C3668      C3669   1.396       .  A
C3668      H3673   1.083       .  S
C3669      C3670   1.407       .  A
C3669      H3674   1.083       .  S
C3670      C3671   1.408   1_554  A
C3671      C3672   1.404       .  A
C3671      H3675   1.083       .  S
C3672      H3676   1.083       .  S
C3677      C3678   1.410       .  A
C3677      C3682   1.400       .  A
C3677      H3687   1.082       .  S
C3678      C3683   1.482       .  S
C3678      C3679   1.400       .  A
C3679      C3680   1.389       .  A
C3679      H3684   1.083       .  S
C3680      C3681   1.409       .  A
C3680      H3685   1.083       .  S
C3681      C3682   1.402       .  A
C3682      H3686   1.083       .  S
C3683      C3688   1.401       .  A
C3683      C3692   1.410       .  A
C3688      C3689   1.390       .  A
C3688      H3693   1.083       .  S
C3689      C3690   1.408       .  A
C3689      H3694   1.083       .  S
C3690      C3691   1.403       .  A
C3691      C3692   1.398       .  A
C3691      H3695   1.083       .  S
C3692      H3696   1.082       .  S
C3697      C3698   1.402       .  A
C3697      C3702   1.393       .  A
C3697      H3707   1.084       .  S
C3698      C3703   1.480       .  S
C3698      C3699   1.405       .  A
C3699      C3700   1.408       .  A
C3699      H3704   1.083       .  S
C3700      C3701   1.408       .  A
C3700      H3705   1.083       .  S
C3701      C3702   1.405       .  A
C3702      H3706   1.084   1_455  S
C3703      C3708   1.405       .  A
C3703      C3712   1.402       .  A
C3708      C3709   1.408       .  A
C3708      H3713   1.083       .  S
C3709      C3710   1.409       .  A
C3709      H3714   1.083       .  S
C3710      C3711   1.405       .  A
C3711      C3712   1.395       .  A
C3711      H3715   1.083       .  S
C3712      H3716   1.084       .  S
C3717      C3718   1.402       .  A
C3717      C3722   1.393       .  A
C3717      H3727   1.083       .  S
C3718      C3723   1.481       .  S
C3718      C3719   1.408       .  A
C3719      C3720   1.400       .  A
C3719      H3724   1.083       .  S
C3720      C3721   1.402       .  A
C3720      H3725   1.083       .  S
C3721      C3722   1.407       .  A
C3722      H3726   1.083       .  S
C3723      C3728   1.408       .  A
C3723      C3732   1.400       .  A
C3728      C3729   1.401       .  A
C3728      H3733   1.083       .  S
C3729      C3730   1.403       .  A
C3729      H3734   1.083       .  S
C3730      C3731   1.410       .  A
C3731      C3732   1.393       .  A
C3731      H3735   1.083       .  S
C3732      H3736   1.083       .  S
C3737      C3738   1.409       .  A
C3737      C3742   1.403       .  A
C3737      H3747   1.082       .  S
C3738      C3743   1.495       .  S
C3738      C3739   1.407       .  A
C3739      C3740   1.397       .  A
C3739      H3744   1.083       .  S
C3740      C3741   1.405       .  A
C3740      H3745   1.083       .  S
C3741      C3742   1.405       .  A
C3742      H3746   1.083       .  S
C3743      C3748   1.409       .  A
C3743      C3752   1.406       .  A
C3748      C3749   1.405       .  A
C3748      H3753   1.083       .  S
C3749      C3750   1.408       .  A
C3749      H3754   1.083       .  S
C3750      C3751   1.409       .  A
C3751      C3752   1.398       .  A
C3751      H3755   1.083       .  S
C3752      H3756   1.083       .  S
C3757      C3758   1.409       .  A
C3757      C3762   1.398       .  A
C3757      H3767   1.082       .  S
C3758      C3763   1.483       .  S
C3758      C3759   1.402       .  A
C3759      C3760   1.392       .  A
C3759      H3764   1.083       .  S
C3760      C3761   1.408       .  A
C3760      H3765   1.083       .  S
C3761      C3762   1.403       .  A
C3762      H3766   1.083       .  S
C3763      C3768   1.402       .  A
C3763      C3772   1.408       .  A
C3768      C3769   1.393       .  A
C3768      H3773   1.083       .  S
C3769      C3770   1.408       .  A
C3769      H3774   1.083       .  S
C3770      C3771   1.403       .  A
C3771      C3772   1.398       .  A
C3771      H3775   1.083       .  S
C3772      H3776   1.083       .  S
C3777      C3778   1.405       .  A
C3777      C3782   1.399       .  A
C3777      H3787   1.083       .  S
C3778      C3783   1.476       .  S
C3778      C3779   1.400       .  A
C3779      C3780   1.394       .  A
C3779      H3784   1.083       .  S
C3780      C3781   1.407       .  A
C3780      H3785   1.083       .  S
C3781      C3782   1.405       .  A
C3782      H3786   1.083       .  S
C3783      C3788   1.401       .  A
C3783      C3792   1.405       .  A
C3788      C3789   1.394       .  A
C3788      H3793   1.083       .  S
C3789      C3790   1.407       .  A
C3789      H3794   1.083       .  S
C3790      C3791   1.405       .  A
C3791      C3792   1.399       .  A
C3791      H3795   1.083       .  S
C3792      H3796   1.083       .  S
C3797      C3798   1.411       .  A
C3797      C3802   1.405       .  A
C3797      H3807   1.083       .  S
C3798      C3803   1.483       .  S
C3798      C3799   1.398   1_655  A
C3799      C3800   1.388       .  A
C3799      H3804   1.083       .  S
C3800      C3801   1.410       .  A
C3800      H3805   1.083       .  S
C3801      C3802   1.405   1_455  A
C3802      H3806   1.083       .  S
C3803      C3808   1.411       .  A
C3803      C3812   1.399       .  A
C3808      C3809   1.401       .  A
C3808      H3813   1.083   1_655  S
C3809      C3810   1.400       .  A
C3809      H3814   1.083   1_655  S
C3810      C3811   1.412       .  A
C3811      C3812   1.392       .  A
C3811      H3815   1.083       .  S
C3812      H3816   1.083       .  S
C3817      C3818   1.409       .  A
C3817      C3822   1.406       .  A
C3817      H3827   1.083       .  S
C3818      C3823   1.486       .  S
C3818      C3819   1.401       .  A
C3819      C3820   1.391       .  A
C3819      H3824   1.083       .  S
C3820      C3821   1.409       .  A
C3820      H3825   1.083       .  S
C3821      C3822   1.407       .  A
C3822      H3826   1.083       .  S
C3823      C3828   1.406       .  A
C3823      C3832   1.405       .  A
C3828      C3829   1.404       .  A
C3828      H3833   1.083       .  S
C3829      C3830   1.408       .  A
C3829      H3834   1.083       .  S
C3830      C3831   1.404       .  A
C3831      C3832   1.394       .  A
C3831      H3835   1.083       .  S
C3832      H3836   1.083       .  S
C3837      C3838   1.407       .  A
C3837      C3842   1.400       .  A
C3837      H3847   1.083       .  S
C3838      C3843   1.488       .  S
C3838      C3839   1.405       .  A
C3839      C3840   1.399       .  A
C3839      H3844   1.083       .  S
C3840      C3841   1.407       .  A
C3840      H3845   1.083       .  S
C3841      C3842   1.405       .  A
C3842      H3846   1.083       .  S
C3843      C3848   1.407       .  A
C3843      C3852   1.404       .  A
C3848      C3849   1.402       .  A
C3848      H3853   1.083       .  S
C3849      C3850   1.408       .  A
C3849      H3854   1.083       .  S
C3850      C3851   1.407       .  A
C3851      C3852   1.397       .  A
C3851      H3855   1.083       .  S
C3852      H3856   1.083       .  S
C3857      C3858   1.408       .  A
C3857      C3862   1.399       .  A
C3857      H3867   1.083       .  S
C3858      C3863   1.483       .  S
C3858      C3859   1.401       .  A
C3859      C3860   1.393       .  A
C3859      H3864   1.083       .  S
C3860      C3861   1.409       .  A
C3860      H3865   1.083       .  S
C3861      C3862   1.404       .  A
C3862      H3866   1.083       .  S
C3863      C3868   1.402       .  A
C3863      C3872   1.409       .  A
C3868      C3869   1.394       .  A
C3868      H3873   1.083       .  S
C3869      C3870   1.408       .  A
C3869      H3874   1.083       .  S
C3870      C3871   1.402       .  A
C3871      C3872   1.399       .  A
C3871      H3875   1.083       .  S
C3872      H3876   1.083       .  S
C3877      C3878   1.402       .  A
C3877      C3882   1.392       .  A
C3877      H3887   1.084       .  S
C3878      C3883   1.480       .  S
C3878      C3879   1.405       .  A
C3879      C3880   1.406       .  A
C3879      H3884   1.083       .  S
C3880      C3881   1.407       .  A
C3880      H3885   1.083       .  S
C3881      C3882   1.404       .  A
C3882      H3886   1.084       .  S
C3883      C3888   1.405       .  A
C3883      C3892   1.402       .  A
C3888      C3889   1.406       .  A
C3888      H3893   1.083       .  S
C3889      C3890   1.407       .  A
C3889      H3894   1.083       .  S
C3890      C3891   1.406       .  A
C3891      C3892   1.392       .  A
C3891      H3895   1.084       .  S
C3892      H3896   1.084       .  S
C3897      C3898   1.398       .  A
C3897      C3902   1.390       .  A
C3897      H3907   1.083       .  S
C3898      C3903   1.477       .  S
C3898      C3899   1.409       .  A
C3899      C3900   1.402       .  A
C3899      H3904   1.083       .  S
C3900      C3901   1.404       .  A
C3900      H3905   1.083       .  S
C3901      C3902   1.408       .  A
C3902      H3906   1.083       .  S
C3903      C3908   1.397       .  A
C3903      C3912   1.409       .  A
C3908      C3909   1.390       .  A
C3908      H3913   1.083       .  S
C3909      C3910   1.412       .  A
C3909      H3914   1.083       .  S
C3910      C3911   1.401       .  A
C3911      C3912   1.400       .  A
C3911      H3915   1.083       .  S
C3912      H3916   1.083       .  S
C3917      C3918   1.406       .  A
C3917      C3922   1.398       .  A
C3917      H3927   1.083       .  S
C3918      C3923   1.494       .  S
C3918      C3919   1.408       .  A
C3919      C3920   1.404       .  A
C3919      H3924   1.083       .  S
C3920      C3921   1.407       .  A
C3920      H3925   1.083       .  S
C3921      C3922   1.408       .  A
C3922      H3926   1.083       .  S
C3923      C3928   1.405       .  A
C3923      C3932   1.409       .  A
C3928      C3929   1.398       .  A
C3928      H3933   1.083       .  S
C3929      C3930   1.408       .  A
C3929      H3934   1.083       .  S
C3930      C3931   1.407       .  A
C3931      C3932   1.406       .  A
C3931      H3935   1.083       .  S
C3932      H3936   1.083       .  S
C3937      C3938   1.401   1_455  A
C3937      C3942   1.391       .  A
C3937      H3947   1.084   1_455  S
C3938      C3943   1.475       .  S
C3938      C3939   1.404   1_655  A
C3939      C3940   1.406       .  A
C3939      H3944   1.083       .  S
C3940      C3941   1.407       .  A
C3940      H3945   1.083       .  S
C3941      C3942   1.404       .  A
C3942      H3946   1.084       .  S
C3943      C3948   1.402       .  A
C3943      C3952   1.402       .  A
C3948      C3949   1.393       .  A
C3948      H3953   1.084       .  S
C3949      C3950   1.405       .  A
C3949      H3954   1.083       .  S
C3950      C3951   1.408       .  A
C3951      C3952   1.404       .  A
C3951      H3955   1.083       .  S
C3952      H3956   1.083       .  S
C3957      C3958   1.402       .  A
C3957      C3962   1.396       .  A
C3957      H3967   1.083       .  S
C3958      C3963   1.481       .  S
C3958      C3959   1.406       .  A
C3959      C3960   1.401       .  A
C3959      H3964   1.083       .  S
C3960      C3961   1.407       .  A
C3960      H3965   1.083       .  S
C3961      C3962   1.407       .  A
C3962      H3966   1.083       .  S
C3963      C3968   1.405       .  A
C3963      C3972   1.403       .  A
C3968      C3969   1.399       .  A
C3968      H3973   1.083       .  S
C3969      C3970   1.405       .  A
C3969      H3974   1.083       .  S
C3970      C3971   1.408       .  A
C3971      C3972   1.398       .  A
C3971      H3975   1.083       .  S
C3972      H3976   1.083       .  S
C3977      C3978   1.403       .  A
C3977      C3982   1.397       .  A
C3977      H3987   1.083       .  S
C3978      C3983   1.483       .  S
C3978      C3979   1.408       .  A
C3979      C3980   1.397       .  A
C3979      H3984   1.083       .  S
C3980      C3981   1.403       .  A
C3980      H3985   1.083       .  S
C3981      C3982   1.407       .  A
C3982      H3986   1.083       .  S
C3983      C3988   1.409       .  A
C3983      C3992   1.400       .  A
C3988      C3989   1.403       .  A
C3988      H3993   1.083       .  S
C3989      C3990   1.405       .  A
C3989      H3994   1.083       .  S
C3990      C3991   1.409       .  A
C3991      C3992   1.392       .  A
C3991      H3995   1.083       .  S
C3992      H3996   1.083       .  S
C3997      C3998   1.405       .  A
C3997      C4002   1.398       .  A
C3997      H4007   1.083       .  S
C3998      C4003   1.493       .  S
C3998      C3999   1.409       .  A
C3999      C4000   1.403       .  A
C3999      H4004   1.083       .  S
C4000      C4001   1.405       .  A
C4000      H4005   1.083       .  S
C4001      C4002   1.408       .  A
C4002      H4006   1.083       .  S
C4003      C4008   1.405       .  A
C4003      C4012   1.408       .  A
C4008      C4009   1.399       .  A
C4008      H4013   1.083       .  S
C4009      C4010   1.408       .  A
C4009      H4014   1.083       .  S
C4010      C4011   1.407       .  A
C4011      C4012   1.403       .  A
C4011      H4015   1.083       .  S
C4012      H4016   1.083       .  S
C4017      C4018   1.406       .  A
C4017      C4022   1.405       .  A
C4017      H4027   1.083       .  S
C4018      C4023   1.491       .  S
C4018      C4019   1.405       .  A
C4019      C4020   1.399       .  A
C4019      H4024   1.083       .  S
C4020      C4021   1.408       .  A
C4020      H4025   1.083       .  S
C4021      C4022   1.409       .  A
C4022      H4026   1.083       .  S
C4023      C4028   1.408       .  A
C4023      C4032   1.403       .  A
C4028      C4029   1.408       .  A
C4028      H4033   1.083       .  S
C4029      C4030   1.409       .  A
C4029      H4034   1.083       .  S
C4030      C4031   1.408       .  A
C4031      C4032   1.396       .  A
C4031      H4035   1.083       .  S
C4032      H4036   1.083       .  S
C4037      C4038   1.407       .  A
C4037      C4042   1.397       .  A
C4037      H4047   1.083       .  S
C4038      C4043   1.473       .  S
C4038      C4039   1.398       .  A
C4039      C4040   1.390       .  A
C4039      H4044   1.083       .  S
C4040      C4041   1.410       .  A
C4040      H4045   1.083       .  S
C4041      C4042   1.403       .  A
C4042      H4046   1.083       .  S
C4043      C4048   1.399       .  A
C4043      C4052   1.407       .  A
C4048      C4049   1.390       .  A
C4048      H4053   1.083       .  S
C4049      C4050   1.408       .  A
C4049      H4054   1.083       .  S
C4050      C4051   1.402       .  A
C4051      C4052   1.398       .  A
C4051      H4055   1.083       .  S
C4052      H4056   1.083       .  S
C4057      C4058   1.401       .  A
C4057      C4062   1.400       .  A
C4057      H4067   1.083       .  S
C4058      C4063   1.476   1_556  S
C4058      C4059   1.402       .  A
C4059      C4060   1.398       .  A
C4059      H4064   1.083       .  S
C4060      C4061   1.409       .  A
C4060      H4065   1.083       .  S
C4061      C4062   1.408       .  A
C4062      H4066   1.083       .  S
C4063      C4068   1.404   1_554  A
C4063      C4072   1.399       .  A
C4068      C4069   1.403       .  A
C4068      H4073   1.083       .  S
C4069      C4070   1.407   1_556  A
C4069      H4074   1.083       .  S
C4070      C4071   1.409       .  A
C4071      C4072   1.395       .  A
C4071      H4075   1.083       .  S
C4072      H4076   1.083       .  S
C4077      C4078   1.407       .  A
C4077      C4082   1.402       .  A
C4077      H4087   1.083       .  S
C4078      C4083   1.492       .  S
C4078      C4079   1.406       .  A
C4079      C4080   1.399       .  A
C4079      H4084   1.083   1_554  S
C4080      C4081   1.408       .  A
C4080      H4085   1.083       .  S
C4081      C4082   1.407       .  A
C4082      H4086   1.083       .  S
C4083      C4088   1.409       .  A
C4083      C4092   1.404   1_554  A
C4088      C4089   1.406       .  A
C4088      H4093   1.083       .  S
C4089      C4090   1.407   1_554  A
C4089      H4094   1.083       .  S
C4090      C4091   1.408       .  A
C4091      C4092   1.397       .  A
C4091      H4095   1.083       .  S
C4092      H4096   1.083       .  S
C4097      C4098   1.402       .  A
C4097      C4102   1.396       .  A
C4097      H4107   1.083       .  S
C4098      C4103   1.483       .  S
C4098      C4099   1.407       .  A
C4099      C4100   1.402       .  A
C4099      H4104   1.083       .  S
C4100      C4101   1.407       .  A
C4100      H4105   1.083       .  S
C4101      C4102   1.408       .  A
C4102      H4106   1.083       .  S
C4103      C4108   1.403       .  A
C4103      C4112   1.405       .  A
C4108      C4109   1.398       .  A
C4108      H4113   1.083       .  S
C4109      C4110   1.408       .  A
C4109      H4114   1.083       .  S
C4110      C4111   1.407       .  A
C4111      C4112   1.400       .  A
C4111      H4115   1.083       .  S
C4112      H4116   1.083       .  S
C4117      C4118   1.409       .  A
C4117      C4122   1.399       .  A
C4117      H4127   1.083       .  S
C4118      C4123   1.487       .  S
C4118      C4119   1.403       .  A
C4119      C4120   1.399       .  A
C4119      H4124   1.083       .  S
C4120      C4121   1.410       .  A
C4120      H4125   1.083       .  S
C4121      C4122   1.403       .  A
C4122      H4126   1.083       .  S
C4123      C4128   1.401       .  A
C4123      C4132   1.410       .  A
C4128      C4129   1.392       .  A
C4128      H4133   1.083       .  S
C4129      C4130   1.409       .  A
C4129      H4134   1.083       .  S
C4130      C4131   1.406       .  A
C4131      C4132   1.405       .  A
C4131      H4135   1.083       .  S
C4132      H4136   1.083       .  S
C4137      C4138   1.401       .  A
C4137      C4142   1.395       .  A
C4137      H4147   1.083       .  S
C4138      C4143   1.487       .  S
C4138      C4139   1.410       .  A
C4139      C4140   1.402       .  A
C4139      H4144   1.083       .  S
C4140      C4141   1.403       .  A
C4140      H4145   1.083       .  S
C4141      C4142   1.410       .  A
C4142      H4146   1.083       .  S
C4143      C4148   1.410       .  A
C4143      C4152   1.400       .  A
C4148      C4149   1.404       .  A
C4148      H4153   1.083       .  S
C4149      C4150   1.405       .  A
C4149      H4154   1.083       .  S
C4150      C4151   1.410       .  A
C4151      C4152   1.394       .  A
C4151      H4155   1.083       .  S
C4152      H4156   1.083       .  S
C4157      C4158   1.410       .  A
C4157      C4162   1.400       .  A
C4157      H4167   1.082       .  S
C4158      C4163   1.498       .  S
C4158      C4159   1.411       .  A
C4159      C4160   1.399       .  A
C4159      H4164   1.082       .  S
C4160      C4161   1.400       .  A
C4160      H4165   1.083       .  S
C4161      C4162   1.402       .  A
C4162      H4166   1.084       .  S
C4163      C4168   1.411       .  A
C4163      C4172   1.410       .  A
C4168      C4169   1.401       .  A
C4168      H4173   1.082       .  S
C4169      C4170   1.402       .  A
C4169      H4174   1.083       .  S
C4170      C4171   1.403       .  A
C4171      C4172   1.400       .  A
C4171      H4175   1.083       .  S
C4172      H4176   1.082       .  S
C4177      C4178   1.408       .  A
C4177      C4182   1.404       .  A
C4177      H4187   1.083       .  S
C4178      C4183   1.490       .  S
C4178      C4179   1.405       .  A
C4179      C4180   1.396       .  A
C4179      H4184   1.083       .  S
C4180      C4181   1.406       .  A
C4180      H4185   1.083       .  S
C4181      C4182   1.408       .  A
C4182      H4186   1.083       .  S
C4183      C4188   1.408       .  A
C4183      C4192   1.404       .  A
C4188      C4189   1.405       .  A
C4188      H4193   1.083       .  S
C4189      C4190   1.407       .  A
C4189      H4194   1.083       .  S
C4190      C4191   1.407       .  A
C4191      C4192   1.395       .  A
C4191      H4195   1.083       .  S
C4192      H4196   1.083       .  S
C4197      C4198   1.398       .  A
C4197      C4202   1.391   1_655  A
C4197      H4207   1.083       .  S
C4198      C4203   1.477       .  S
C4198      C4199   1.409       .  A
C4199      C4200   1.399   1_655  A
C4199      H4204   1.083       .  S
C4200      C4201   1.401       .  A
C4200      H4205   1.083       .  S
C4201      C4202   1.409       .  A
C4202      H4206   1.083       .  S
C4203      C4208   1.408       .  A
C4203      C4212   1.399       .  A
C4208      C4209   1.400       .  A
C4208      H4213   1.083       .  S
C4209      C4210   1.404       .  A
C4209      H4214   1.083       .  S
C4210      C4211   1.407       .  A
C4211      C4212   1.389       .  A
C4211      H4215   1.083       .  S
C4212      H4216   1.083       .  S
C4217      C4218   1.408       .  A
C4217      C4222   1.403       .  A
C4217      H4227   1.083       .  S
C4218      C4223   1.491       .  S
C4218      C4219   1.404       .  A
C4219      C4220   1.397       .  A
C4219      H4224   1.083       .  S
C4220      C4221   1.408       .  A
C4220      H4225   1.083       .  S
C4221      C4222   1.407       .  A
C4222      H4226   1.083       .  S
C4223      C4228   1.408       .  A
C4223      C4232   1.405       .  A
C4228      C4229   1.401       .  A
C4228      H4233   1.083       .  S
C4229      C4230   1.405       .  A
C4229      H4234   1.083       .  S
C4230      C4231   1.407       .  A
C4231      C4232   1.399       .  A
C4231      H4235   1.083       .  S
C4232      H4236   1.083       .  S
C4237      C4238   1.404       .  A
C4237      C4242   1.395       .  A
C4237      H4247   1.083       .  S
C4238      C4243   1.488       .  S
C4238      C4239   1.407       .  A
C4239      C4240   1.405       .  A
C4239      H4244   1.083       .  S
C4240      C4241   1.409       .  A
C4240      H4245   1.083       .  S
C4241      C4242   1.407       .  A
C4242      H4246   1.083       .  S
C4243      C4248   1.404       .  A
C4243      C4252   1.407       .  A
C4248      C4249   1.396       .  A
C4248      H4253   1.083       .  S
C4249      C4250   1.408       .  A
C4249      H4254   1.083       .  S
C4250      C4251   1.408       .  A
C4251      C4252   1.406       .  A
C4251      H4255   1.083       .  S
C4252      H4256   1.083       .  S
C4257      C4258   1.403       .  A
C4257      C4262   1.399       .  A
C4257      H4267   1.083       .  S
C4258      C4263   1.481       .  S
C4258      C4259   1.405       .  A
C4259      C4260   1.404       .  A
C4259      H4264   1.083       .  S
C4260      C4261   1.406       .  A
C4260      H4265   1.083       .  S
C4261      C4262   1.403       .  A
C4262      H4266   1.083       .  S
C4263      C4268   1.404       .  A
C4263      C4272   1.405       .  A
C4268      C4269   1.399       .  A
C4268      H4273   1.083       .  S
C4269      C4270   1.403       .  A
C4269      H4274   1.083       .  S
C4270      C4271   1.405       .  A
C4271      C4272   1.404       .  A
C4271      H4275   1.083       .  S
C4272      H4276   1.083       .  S
C4277      C4278   1.405       .  A
C4277      C4282   1.402   1_655  A
C4277      H4287   1.083       .  S
C4278      C4283   1.488       .  S
C4278      C4279   1.405   1_655  A
C4279      C4280   1.399       .  A
C4279      H4284   1.083       .  S
C4280      C4281   1.407       .  A
C4280      H4285   1.083       .  S
C4281      C4282   1.409       .  A
C4282      H4286   1.083       .  S
C4283      C4288   1.404       .  A
C4283      C4292   1.407       .  A
C4288      C4289   1.400       .  A
C4288      H4293   1.083       .  S
C4289      C4290   1.409       .  A
C4289      H4294   1.083       .  S
C4290      C4291   1.405       .  A
C4291      C4292   1.401       .  A
C4291      H4295   1.083       .  S
C4292      H4296   1.083       .  S
C4297      C4298   1.402   1_554  A
C4297      C4302   1.392   1_554  A
C4297      H4307   1.083       .  S
C4298      C4303   1.485   1_656  S
C4298      C4299   1.409       .  A
C4299      C4300   1.401       .  A
C4299      H4304   1.083       .  S
C4300      C4301   1.404       .  A
C4300      H4305   1.083       .  S
C4301      C4302   1.407       .  A
C4302      H4306   1.083       .  S
C4303      C4308   1.409   1_455  A
C4303      C4312   1.401   1_554  A
C4308      C4309   1.399   1_655  A
C4308      H4313   1.083       .  S
C4309      C4310   1.403       .  A
C4309      H4314   1.083       .  S
C4310      C4311   1.410       .  A
C4311      C4312   1.394   1_554  A
C4311      H4315   1.083       .  S
C4312      H4316   1.083       .  S
C4317      C4318   1.399       .  A
C4317      C4322   1.392       .  A
C4317      H4327   1.083       .  S
C4318      C4323   1.484       .  S
C4318      C4319   1.410       .  A
C4319      C4320   1.404       .  A
C4319      H4324   1.083   1_655  S
C4320      C4321   1.403       .  A
C4320      H4325   1.083   1_655  S
C4321      C4322   1.409       .  A
C4322      H4326   1.083       .  S
C4323      C4328   1.409       .  A
C4323      C4332   1.400   1_655  A
C4328      C4329   1.402       .  A
C4328      H4333   1.083       .  S
C4329      C4330   1.404   1_655  A
C4329      H4334   1.083       .  S
C4330      C4331   1.411       .  A
C4331      C4332   1.394       .  A
C4331      H4335   1.083       .  S
C4332      H4336   1.083       .  S
C4337      C4338   1.406       .  A
C4337      C4342   1.406       .  A
C4337      H4347   1.083       .  S
C4338      C4343   1.490       .  S
C4338      C4339   1.405       .  A
C4339      C4340   1.399       .  A
C4339      H4344   1.083       .  S
C4340      C4341   1.407       .  A
C4340      H4345   1.083       .  S
C4341      C4342   1.410       .  A
C4342      H4346   1.083       .  S
C4343      C4348   1.407       .  A
C4343      C4352   1.403       .  A
C4348      C4349   1.408       .  A
C4348      H4353   1.083       .  S
C4349      C4350   1.410       .  A
C4349      H4354   1.083       .  S
C4350      C4351   1.407       .  A
C4351      C4352   1.398       .  A
C4351      H4355   1.083       .  S
C4352      H4356   1.083       .  S
C4357      C4358   1.403       .  A
C4357      C4362   1.395       .  A
C4357      H4367   1.083       .  S
C4358      C4363   1.484       .  S
C4358      C4359   1.407       .  A
C4359      C4360   1.403       .  A
C4359      H4364   1.083       .  S
C4360      C4361   1.406       .  A
C4360      H4365   1.083       .  S
C4361      C4362   1.406       .  A
C4362      H4366   1.083       .  S
C4363      C4368   1.403       .  A
C4363      C4372   1.406       .  A
C4368      C4369   1.396       .  A
C4368      H4373   1.083       .  S
C4369      C4370   1.409       .  A
C4369      H4374   1.083       .  S
C4370      C4371   1.408       .  A
C4371      C4372   1.403       .  A
C4371      H4375   1.083       .  S
C4372      H4376   1.083       .  S
C4377      C4378   1.407       .  A
C4377      C4382   1.399       .  A
C4377      H4387   1.083       .  S
C4378      C4383   1.474       .  S
C4378      C4379   1.398       .  A
C4379      C4380   1.389       .  A
C4379      H4384   1.083       .  S
C4380      C4381   1.409       .  A
C4380      H4385   1.083       .  S
C4381      C4382   1.403       .  A
C4382      H4386   1.083       .  S
C4383      C4388   1.398       .  A
C4383      C4392   1.408       .  A
C4388      C4389   1.389       .  A
C4388      H4393   1.083       .  S
C4389      C4390   1.408       .  A
C4389      H4394   1.083       .  S
C4390      C4391   1.403       .  A
C4391      C4392   1.398       .  A
C4391      H4395   1.083       .  S
C4392      H4396   1.083       .  S
C4397      C4398   1.404       .  A
C4397      C4402   1.403       .  A
C4397      H4407   1.083       .  S
C4398      C4403   1.475       .  S
C4398      C4399   1.402       .  A
C4399      C4400   1.396       .  A
C4399      H4404   1.084       .  S
C4400      C4401   1.404       .  A
C4400      H4405   1.084   1_455  S
C4401      C4402   1.405       .  A
C4402      H4406   1.083       .  S
C4403      C4408   1.403       .  A
C4403      C4412   1.403       .  A
C4408      C4409   1.402       .  A
C4408      H4413   1.083       .  S
C4409      C4410   1.405       .  A
C4409      H4414   1.083       .  S
C4410      C4411   1.404       .  A
C4411      C4412   1.398       .  A
C4411      H4415   1.083       .  S
C4412      H4416   1.083       .  S
C4417      C4418   1.408       .  A
C4417      C4422   1.400       .  A
C4417      H4427   1.083       .  S
C4418      C4423   1.480       .  S
C4418      C4419   1.400       .  A
C4419      C4420   1.394       .  A
C4419      H4424   1.083       .  S
C4420      C4421   1.410       .  A
C4420      H4425   1.083       .  S
C4421      C4422   1.403       .  A
C4422      H4426   1.083       .  S
C4423      C4428   1.400       .  A
C4423      C4432   1.408       .  A
C4428      C4429   1.393       .  A
C4428      H4433   1.083       .  S
C4429      C4430   1.408       .  A
C4429      H4434   1.083       .  S
C4430      C4431   1.403       .  A
C4431      C4432   1.401       .  A
C4431      H4435   1.083       .  S
C4432      H4436   1.083       .  S
C4437      C4438   1.410       .  A
C4437      C4442   1.403       .  A
C4437      H4447   1.082       .  S
C4438      C4443   1.496       .  S
C4438      C4439   1.406       .  A
C4439      C4440   1.400       .  A
C4439      H4444   1.083       .  S
C4440      C4441   1.408       .  A
C4440      H4445   1.083       .  S
C4441      C4442   1.406       .  A
C4442      H4446   1.083       .  S
C4443      C4448   1.410       .  A
C4443      C4452   1.405       .  A
C4448      C4449   1.404       .  A
C4448      H4453   1.082       .  S
C4449      C4450   1.406       .  A
C4449      H4454   1.083       .  S
C4450      C4451   1.409       .  A
C4451      C4452   1.398       .  A
C4451      H4455   1.083       .  S
C4452      H4456   1.083       .  S
C4457      C4458   1.409       .  A
C4457      C4462   1.409       .  A
C4457      H4467   1.083       .  S
C4458      C4463   1.492       .  S
C4458      C4459   1.403       .  A
C4459      C4460   1.394       .  A
C4459      H4464   1.083       .  S
C4460      C4461   1.408       .  A
C4460      H4465   1.083       .  S
C4461      C4462   1.408       .  A
C4462      H4466   1.083       .  S
C4463      C4468   1.407       .  A
C4463      C4472   1.406       .  A
C4468      C4469   1.406       .  A
C4468      H4473   1.083       .  S
C4469      C4470   1.408       .  A
C4469      H4474   1.083       .  S
C4470      C4471   1.408       .  A
C4471      C4472   1.397       .  A
C4471      H4475   1.083       .  S
C4472      H4476   1.083       .  S
C4477      C4478   1.405       .  A
C4477      C4482   1.399       .  A
C4477      H4487   1.083       .  S
C4478      C4483   1.480       .  S
C4478      C4479   1.403       .  A
C4479      C4480   1.396       .  A
C4479      H4484   1.083       .  S
C4480      C4481   1.406       .  A
C4480      H4485   1.083       .  S
C4481      C4482   1.407       .  A
C4482      H4486   1.083       .  S
C4483      C4488   1.404       .  A
C4483      C4492   1.403       .  A
C4488      C4489   1.398       .  A
C4488      H4493   1.083       .  S
C4489      C4490   1.407       .  A
C4489      H4494   1.083       .  S
C4490      C4491   1.406       .  A
C4491      C4492   1.396       .  A
C4491      H4495   1.083       .  S
C4492      H4496   1.083       .  S
C4497      C4498   1.406       .  A
C4497      C4502   1.403       .  A
C4497      H4507   1.083       .  S
C4498      C4503   1.484   1_655  S
C4498      C4499   1.405       .  A
C4499      C4500   1.399       .  A
C4499      H4504   1.083       .  S
C4500      C4501   1.403       .  A
C4500      H4505   1.083       .  S
C4501      C4502   1.404       .  A
C4502      H4506   1.083       .  S
C4503      C4508   1.405       .  A
C4503      C4512   1.405       .  A
C4508      C4509   1.403       .  A
C4508      H4513   1.083       .  S
C4509      C4510   1.405       .  A
C4509      H4514   1.084       .  S
C4510      C4511   1.403       .  A
C4511      C4512   1.399       .  A
C4511      H4515   1.083       .  S
C4512      H4516   1.083   1_455  S
C4517      C4518   1.410       .  A
C4517      C4522   1.400       .  A
C4517      H4527   1.083       .  S
C4518      C4523   1.483       .  S
C4518      C4519   1.401       .  A
C4519      C4520   1.391       .  A
C4519      H4524   1.083       .  S
C4520      C4521   1.408       .  A
C4520      H4525   1.083       .  S
C4521      C4522   1.404       .  A
C4522      H4526   1.083       .  S
C4523      C4528   1.401       .  A
C4523      C4532   1.410       .  A
C4528      C4529   1.391       .  A
C4528      H4533   1.083       .  S
C4529      C4530   1.407       .  A
C4529      H4534   1.083       .  S
C4530      C4531   1.402       .  A
C4531      C4532   1.401       .  A
C4531      H4535   1.083       .  S
C4532      H4536   1.083       .  S
