geometry optimzed in LAMMPS
_audit_creation_date              2020-12-01 
_audit_creation_method            'lammps2cif' 
_symmetry_space_group_name_H-M    'P1' 
_symmetry_Int_Tables_number       1 
_symmetry_cell_setting            triclinic 
loop_ 
_symmetry_equiv_pos_as_xyz 
  x,y,z 
_cell_length_a                    33.49955857 
_cell_length_b                    33.50206022760935 
_cell_length_c                    64.9774299245569 
_cell_angle_alpha                 90.02263760079192 
_cell_angle_beta                  89.94679913603849 
_cell_angle_gamma                 119.96123429641946 
loop_ 
_atom_site_label 
_atom_site_type_symbol 
_atom_site_fract_x 
_atom_site_fract_y 
_atom_site_fract_z 
_atom_site_charge 
O1          O  0.67871265  0.82138713  0.32795320    -0.81300
O2          O  0.71640014  0.80483625  0.42287678    -0.65900
O3          O  0.67595450  0.78393989  0.36696595    -1.12500
C4          C  0.56564443  0.82335983  0.39182236     1.05600
O5          O  0.64563694  0.76585003  0.43535743    -0.79200
O6          O  0.57170012  0.73150990  0.41002645    -0.66700
Ni7        Ni  0.72118374  0.81609158  0.34614571     1.34900
C8          C  0.56346289  0.71563132  0.39182523     0.84400
O9          O  0.74157347  0.77568099  0.39028233    -0.79700
O10         O  0.76979520  0.81264130  0.36064405    -0.90000
C11         C  0.68875168  0.78116563  0.43708525     0.83900
O12         O  0.73842603  0.87471408  0.35777398    -0.68200
O13         O  0.57459935  0.81424870  0.40975135    -0.87500
C14         C  0.75448717  0.88801473  0.37575911     0.84800
C15         C  0.77223956  0.79126789  0.37636428     1.06300
H16         H  0.66969948  0.84826251  0.39991692     0.38100
O17         O  0.65381462  0.81518706  0.39834649    -1.10100
O18         O  0.58476448  0.73927648  0.37609282    -0.66800
Ni19       Ni  0.63043666  0.80219270  0.37085428     1.26300
O20         O  0.74559452  0.85943069  0.39041256    -0.67000
O21         O  0.58545832  0.82071116  0.37554298    -0.79300
C22         C  0.63534494  0.80490093  0.32703269     0.84200
O23         O  0.60967701  0.79000688  0.34282247    -0.66500
Ni24       Ni  0.61215985  0.79103228  0.42113976     1.27400
Ni25       Ni  0.69795674  0.79561147  0.39473350     1.26100
H26         H  0.66134946  0.75126627  0.36424659     0.38700
O27         O  0.83721495  0.67311156  0.67027397    -0.81300
O28         O  0.81335789  0.69991942  0.57582912    -0.65900
O29         O  0.79105658  0.66856466  0.63301658    -1.12500
C30         C  0.81041854  0.54246508  0.61280191     1.05600
O31         O  0.76472179  0.62830591  0.56646768    -0.79200
O32         O  0.72456923  0.55797323  0.59372861    -0.66700
Ni33       Ni  0.82519855  0.71360469  0.65362447     1.34900
C34         C  0.70984906  0.55297195  0.61206967     0.84400
O35         O  0.79278698  0.73757915  0.60749042    -0.79700
O36         O  0.81605870  0.75931124  0.63993440    -0.90000
C37         C  0.78675535  0.67127412  0.56246467     0.83900
O38         O  0.88425371  0.73638489  0.64143153    -0.68200
O39         O  0.80107027  0.54946664  0.59453445    -0.87500
C40         C  0.89801465  0.74382590  0.62289611     0.84800
C41         C  0.80137586  0.76482976  0.62268670     1.06300
H42         H  0.84690580  0.64713162  0.60107336     0.38100
O43         O  0.81442413  0.63562052  0.60295975    -1.10100
O44         O  0.73554716  0.57515843  0.62723188    -0.66800
Ni45       Ni  0.80083043  0.61707482  0.63110626     1.26300
O46         O  0.87010831  0.72848577  0.60773753    -0.67000
O47         O  0.81247226  0.56678656  0.62830202    -0.79300
C48         C  0.81231246  0.63031033  0.67389761     0.84200
O49         O  0.78867690  0.60220896  0.65979130    -0.66500
Ni50       Ni  0.78424576  0.59109280  0.58168991     1.27400
Ni51       Ni  0.80400879  0.68675640  0.60468864     1.26100
H52         H  0.75877785  0.65761231  0.63547732     0.38700
O53         O  0.14938554  0.83291768  0.33108795    -0.81300
O54         O  0.17338862  0.88336050  0.42263586    -0.65900
O55         O  0.19951236  0.87340769  0.36658417    -1.12500
C56         C  0.16992592  0.72459379  0.38665523     1.05600
O57         O  0.21816976  0.85656819  0.43350523    -0.79200
O58         O  0.25936198  0.82738176  0.40616406    -0.66700
Ni59       Ni  0.17310990  0.89103108  0.34496109     1.34900
C60         C  0.27307040  0.83285962  0.38762000     0.84400
O61         O  0.19887605  0.94251301  0.39122615    -0.79700
O62         O  0.19481882  0.95065443  0.35708433    -0.90000
C63         C  0.19844334  0.88026712  0.43643124     0.83900
O64         O  0.11360298  0.86967363  0.35656833    -0.68200
O65         O  0.18183109  0.74219288  0.40464021    -0.87500
C66         C  0.09690891  0.85766304  0.37450838     0.84800
C67         C  0.20102207  0.96632746  0.37543608     1.06300
H68         H  0.13783484  0.79709534  0.39839592     0.38100
O69         O  0.17064538  0.81650035  0.39641347    -1.10100
O70         O  0.24713843  0.82763635  0.37239296    -0.66800
Ni71       Ni  0.18344853  0.80995985  0.36837482     1.26300
O72         O  0.12040310  0.85785650  0.38990168    -0.67000
O73         O  0.16648410  0.74633931  0.37124923    -0.79300
C74         C  0.17415256  0.81567728  0.32606381     0.84200
O75         O  0.19528345  0.80650629  0.33975650    -0.66500
Ni76       Ni  0.19907406  0.80050754  0.41780399     1.27400
Ni77       Ni  0.18499114  0.87936100  0.39430352     1.26100
H78         H  0.23252709  0.89211561  0.36506600     0.38700
O79         O  0.31674003  0.10618858  0.67247994    -0.81300
O80         O  0.28163331  0.08264995  0.57562725    -0.65900
O81         O  0.32135313  0.08738346  0.63093856    -1.12500
C82         C  0.43496843  0.23880627  0.61169878     1.05600
O83         O  0.35209742  0.10877106  0.56368854    -0.79200
O84         O  0.42126473  0.13338266  0.59147339    -0.66700
Ni85       Ni  0.27517091  0.06432438  0.65225349     1.34900
C86         C  0.43396253  0.13306884  0.60985915     0.84400
O87         O  0.25449824  0.01953188  0.60448419    -0.79700
O88         O  0.22706586  0.01636974  0.63589644    -0.90000
C89         C  0.30852483  0.08592153  0.56122438     0.83900
O90         O  0.25315628  0.10531933  0.64527317    -0.68200
O91         O  0.43229577  0.22004029  0.59422429    -0.87500
C92         C  0.23994412  0.11057470  0.62759798     0.84800
C93         C  0.22356900  0.99977964  0.61801897     1.06300
H94         H  0.33055960  0.16512934  0.59983141     0.38100
O95         O  0.34516399  0.14678186  0.60177597    -1.10100
O96         O  0.41532790  0.14134033  0.62510228    -0.66800
Ni97       Ni  0.36491906  0.15316498  0.62955582     1.26300
O98         O  0.25345659  0.10090174  0.61081397    -0.67000
O99         O  0.40728416  0.21802755  0.62656598    -0.79300
C100        C  0.35793850  0.13940235  0.67356426     0.84200
O101        O  0.38231667  0.15938453  0.65787452    -0.66500
Ni102      Ni  0.39001622  0.16312367  0.58036509     1.27400
Ni103      Ni  0.29948112  0.08366906  0.60336045     1.26100
H104        H  0.33779345  0.07054816  0.63164812     0.38700
O105        O  0.15485143  0.29821257  0.32785259    -0.81300
O106        O  0.10048534  0.27305337  0.42301798    -0.65900
O107        O  0.11449424  0.30174589  0.36555060    -1.12500
C108        C  0.25455876  0.43223429  0.38769502     1.05600
O109        O  0.11982255  0.34427289  0.43172346    -0.79200
O110        O  0.14866601  0.41231155  0.40341426    -0.66700
Ni111      Ni  0.10847517  0.25518732  0.34654071     1.34900
C112        C  0.14174176  0.41641276  0.38453849     0.84400
O113        O  0.04665158  0.23354183  0.39057375    -0.79700
O114        O  0.05905406  0.20547081  0.36171024    -0.90000
C115        C  0.10020969  0.30146052  0.43584055     0.83900
O116        O  0.15328642  0.24514858  0.35995088    -0.68200
O117        O  0.23554311  0.42543729  0.40534950    -0.87500
C118        C  0.15436722  0.23563569  0.37879837     0.84800
C119        C  0.03523898  0.20109343  0.37770704     1.06300
H120        H  0.18878125  0.32717698  0.39984662     0.38100
O121        O  0.16725101  0.33759976  0.39677860    -1.10100
O122        O  0.14915340  0.39496202  0.37022654    -0.66800
Ni123      Ni  0.17486896  0.35471018  0.36841049     1.26300
O124        O  0.13379943  0.24543777  0.39278668    -0.67000
O125        O  0.23551080  0.40654131  0.37211260    -0.79300
C126        C  0.17339371  0.34146191  0.32507906     0.84200
O127        O  0.18048169  0.36906318  0.33978308    -0.66500
Ni128      Ni  0.17693692  0.38263142  0.41725839     1.27400
Ni129      Ni  0.10700101  0.28539919  0.39412317     1.26100
H130        H  0.09253817  0.31122639  0.36181750     0.38700
O131        O  0.85664849  0.15164799  0.67567530    -0.81300
O132        O  0.91741073  0.17882526  0.58148739    -0.65900
O133        O  0.89554930  0.19449098  0.63779340    -1.12500
C134        C  0.74861376  0.16199390  0.61132956     1.05600
O135        O  0.89087025  0.22363764  0.57085001    -0.79200
O136        O  0.84844340  0.25527084  0.59632176    -0.66700
Ni137      Ni  0.90710237  0.16023429  0.65828637     1.34900
C138        C  0.85352163  0.26842294  0.61493638     0.84400
O139        O  0.97032227  0.20234793  0.61458244    -0.79700
O140        O  0.96151910  0.16666960  0.64461315    -0.90000
C141        C  0.91613230  0.20556738  0.56808250     0.83900
O142        O  0.86861238  0.10184207  0.64560463    -0.68200
O143        O  0.76863174  0.17343428  0.59380771    -0.87500
C144        C  0.87074936  0.09071610  0.62711417     0.84800
C145        C  0.98527752  0.18699941  0.62869155     1.06300
H146        H  0.82659698  0.13596216  0.60315276     0.38100
O147        O  0.84445895  0.16870613  0.60569393    -1.10100
O148        O  0.85038206  0.24271022  0.63000736    -0.66800
Ni149      Ni  0.83232724  0.17856577  0.63334492     1.26300
O150        O  0.88865647  0.12039916  0.61269387    -0.67000
O151        O  0.76911919  0.16173822  0.62789241    -0.79300
C152        C  0.83139442  0.17000370  0.67695794     0.84200
O153        O  0.82252032  0.18754923  0.66155477    -0.66500
Ni154      Ni  0.83051902  0.19736688  0.58359659     1.27400
Ni155      Ni  0.90732199  0.18532320  0.60983371     1.26100
H156        H  0.91394982  0.22687495  0.64106386     0.38700
O157        O  0.15602169  0.31634520  0.16974636    -0.81300
O158        O  0.19223681  0.28844594  0.07677658    -0.65900
O159        O  0.20470606  0.32156568  0.13360371    -1.12500
C160        C  0.17844268  0.44181522  0.11039196     1.05600
O161        O  0.23215235  0.36042554  0.06534227    -0.79200
O162        O  0.26843046  0.43091980  0.09284536    -0.66700
Ni163      Ni  0.16804117  0.27543703  0.15350005     1.34900
C164        C  0.28195066  0.43749319  0.11143138     0.84400
O165        O  0.21263738  0.25641914  0.11002610    -0.79700
O166        O  0.17688268  0.22891359  0.14012806    -0.90000
C167        C  0.21688708  0.31742778  0.06313965     0.83900
O168        O  0.11094798  0.25536081  0.13981580    -0.68200
O169        O  0.18892936  0.43433334  0.09247499    -0.87500
C170        C  0.10112267  0.24378343  0.12114018     0.84800
C171        C  0.19761803  0.22614206  0.12419741     1.06300
H172        H  0.14786935  0.33599632  0.09976050     0.38100
O173        O  0.18067543  0.35037082  0.10206552    -1.10100
O174        O  0.25623226  0.41459682  0.12643894    -0.66800
Ni175      Ni  0.19167561  0.37062988  0.13021648     1.26300
O176        O  0.13161045  0.25683597  0.10703443    -0.67000
O177        O  0.17696859  0.41878975  0.12629734    -0.79300
C178        C  0.18234033  0.35890740  0.17333536     0.84200
O179        O  0.20294138  0.38726614  0.15882528    -0.66500
Ni180      Ni  0.20930676  0.39489963  0.08044389     1.27400
Ni181      Ni  0.19671427  0.30310348  0.10540627     1.26100
H182        H  0.23672912  0.33401459  0.13722773     0.38700
O183        O  0.31125397  0.16705572  0.82449370    -0.81300
O184        O  0.28254479  0.19621467  0.91839176    -0.65900
O185        O  0.31788409  0.21218960  0.86177333    -1.12500
C186        C  0.43151228  0.17709259  0.88607710     1.05600
O187        O  0.35415218  0.23847438  0.92900758    -0.79200
O188        O  0.42632808  0.27089856  0.90263336    -0.66700
Ni189      Ni  0.27117319  0.17815706  0.84169276     1.34900
C190        C  0.43389911  0.28467658  0.88409927     0.84400
O191        O  0.25363882  0.22188922  0.88565823    -0.79700
O192        O  0.22498094  0.18639452  0.85578001    -0.90000
C193        C  0.31104946  0.22100930  0.93207923     0.83900
O194        O  0.24994029  0.11968807  0.85430554    -0.68200
O195        O  0.42402543  0.18855551  0.90379323    -0.87500
C196        C  0.23732886  0.10906733  0.87284245     0.84800
C197        C  0.22281499  0.20724289  0.87176551     1.06300
H198        H  0.32833736  0.15203400  0.89545263     0.38100
O199        O  0.34364804  0.18488477  0.89316987    -1.10100
O200        O  0.41104483  0.25953929  0.86897236    -0.66800
Ni201      Ni  0.36477973  0.19566912  0.86524509     1.26300
O202        O  0.25080159  0.13878256  0.88726659    -0.67000
O203        O  0.41070526  0.17785236  0.86971649    -0.79300
C204        C  0.35459938  0.18922199  0.82178966     0.84200
O205        O  0.38248231  0.20632511  0.83676536    -0.66500
Ni206      Ni  0.38710641  0.21245428  0.91506172     1.27400
Ni207      Ni  0.29836138  0.20310728  0.88988531     1.26100
H208        H  0.33187161  0.24458661  0.85852087     0.38700
O209        O  0.14689687  0.84517862  0.16995134    -0.81300
O210        O  0.09311498  0.81612840  0.07632584    -0.65900
O211        O  0.10654226  0.79812900  0.13316047    -1.12500
C212        C  0.25312457  0.82013474  0.11303350     1.05600
O213        O  0.12340305  0.77441785  0.06529360    -0.79200
O214        O  0.14963771  0.73293497  0.09349068    -0.66700
Ni215      Ni  0.09532477  0.83379396  0.15297505     1.34900
C216        C  0.14209240  0.71913097  0.11201349     0.84400
O217        O  0.03612793  0.79313518  0.10816777    -0.79700
O218        O  0.04117220  0.82557962  0.13878323    -0.90000
C219        C  0.09791600  0.79218269  0.06254696     0.83900
O220        O  0.13278558  0.89205560  0.14029394    -0.68200
O221        O  0.23590460  0.80847882  0.09502343    -0.87500
C222        C  0.13383670  0.90287910  0.12156352     0.84800
C223        C  0.01904352  0.80624527  0.12240605     1.06300
H224        H  0.18166298  0.85549127  0.10046080     0.38100
O225        O  0.16232538  0.82275907  0.10264767    -1.10100
O226        O  0.14776488  0.74563305  0.12718350    -0.66800
Ni227      Ni  0.16872977  0.81056409  0.13090632     1.26300
O228        O  0.11923709  0.87334420  0.10708897    -0.67000
O229        O  0.23159536  0.82472013  0.12818918    -0.79300
C230        C  0.16404818  0.81967978  0.17377392     0.84200
O231        O  0.17204233  0.79891585  0.15946093    -0.66500
Ni232      Ni  0.17833688  0.79290718  0.08161155     1.27400
Ni233      Ni  0.09922993  0.80825808  0.10487602     1.26100
H234        H  0.08632348  0.76591009  0.13627715     0.38700
O235        O  0.84903175  0.68997669  0.82531340    -0.81300
O236        O  0.90853812  0.72536077  0.91985654    -0.65900
O237        O  0.88849680  0.68841890  0.86348410    -1.12500
C238        C  0.74028318  0.57381865  0.88832860     1.05600
O239        O  0.87727945  0.65357301  0.93143999    -0.79200
O240        O  0.83615799  0.57954551  0.90602269    -0.66700
Ni241      Ni  0.89797120  0.73343586  0.84301515     1.34900
C242        C  0.84552702  0.57272270  0.88786740     0.84400
O243        O  0.96150303  0.75524207  0.88651228    -0.79700
O244        O  0.95036750  0.78270269  0.85712419    -0.90000
C245        C  0.90456964  0.69665604  0.93358507     0.83900
O246        O  0.85665336  0.74955340  0.85570949    -0.68200
O247        O  0.75739597  0.58393824  0.90641549    -0.87500
C248        C  0.85877451  0.76334892  0.87409744     0.84800
C249        C  0.97521850  0.78598847  0.87259486     1.06300
H250        H  0.81747392  0.67778902  0.89674157     0.38100
O251        O  0.83564765  0.66285512  0.89508600    -1.10100
O252        O  0.84659162  0.59667197  0.87248405    -0.66800
Ni253      Ni  0.82613829  0.64021715  0.86754758     1.26300
O254        O  0.87966182  0.75471768  0.88832127    -0.67000
O255        O  0.76344836  0.59274957  0.87208716    -0.79300
C256        C  0.82701055  0.64619919  0.82406957     0.84200
O257        O  0.81933228  0.62048212  0.83959608    -0.66500
Ni258      Ni  0.81839339  0.62071957  0.91759969     1.27400
Ni259      Ni  0.89885027  0.70903190  0.89139854     1.26100
H260        H  0.90788650  0.67550748  0.86024496     0.38700
O261        O  0.69047244  0.85489386  0.17437526    -0.81300
O262        O  0.71610948  0.91672772  0.08033170    -0.65900
O263        O  0.68364013  0.89416019  0.13710645    -1.12500
C264        C  0.56693862  0.74701039  0.11261098     1.05600
O265        O  0.64397318  0.88507900  0.06926940    -0.79200
O266        O  0.57349830  0.84710164  0.09677651    -0.66700
Ni267      Ni  0.73166153  0.90358112  0.15593034     1.34900
C268        C  0.56683511  0.85336598  0.11546017     0.84400
O269        O  0.74709313  0.96863338  0.11366708    -0.79700
O270        O  0.77927807  0.95621722  0.14106210    -0.90000
C271        C  0.68696093  0.91229694  0.06683829     0.83900
O272        O  0.74584602  0.86207146  0.14176313    -0.68200
O273        O  0.57394947  0.76607180  0.09495939    -0.87500
C274        C  0.75869754  0.86614724  0.12308973     0.84800
C275        C  0.78000902  0.98195509  0.12643057     1.06300
H276        H  0.67050891  0.82491875  0.10235748     0.38100
O277        O  0.65554156  0.84264040  0.10508307    -1.10100
O278        O  0.58980403  0.85012988  0.13038257    -0.66800
Ni279      Ni  0.63573670  0.83146159  0.13319304     1.26300
O280        O  0.74823559  0.88755499  0.10989196    -0.67000
O281        O  0.58887762  0.76846840  0.12871426    -0.79300
C282        C  0.64686326  0.83141477  0.17667306     0.84200
O283        O  0.61939949  0.82286742  0.16171827    -0.66500
Ni284      Ni  0.61110954  0.82673503  0.08360274     1.27400
Ni285      Ni  0.70152366  0.90584432  0.10883659     1.26100
H286        H  0.67067497  0.91299954  0.14128996     0.38700
O287        O  0.84661828  0.16320997  0.83113131    -0.81300
O288        O  0.81062172  0.09978598  0.92353879    -0.65900
O289        O  0.79617289  0.11714440  0.86660735    -1.12500
C290        C  0.82012094  0.26251077  0.88983917     1.05600
O291        O  0.76470534  0.12603822  0.93310025    -0.79200
O292        O  0.73079763  0.16362409  0.90642770    -0.66700
Ni293      Ni  0.83231594  0.10824656  0.84641106     1.34900
C294        C  0.71616591  0.15326615  0.88807122     0.84400
O295        O  0.79176520  0.04569472  0.89077544    -0.79700
O296        O  0.82067050  0.05160049  0.85916351    -0.90000
C297        C  0.78426479  0.10253696  0.93675034     0.83900
O298        O  0.89012305  0.14172513  0.86011364    -0.68200
O299        O  0.81153989  0.24510617  0.90788115    -0.87500
C300        C  0.90019837  0.14264095  0.87897301     0.84800
C301        C  0.80381106  0.02931841  0.87586334     1.06300
H302        H  0.85130696  0.18958389  0.89999722     0.38100
O303        O  0.81858870  0.17016122  0.89776771    -1.10100
O304        O  0.74171492  0.15492056  0.87322783    -0.66800
Ni305      Ni  0.80690786  0.17838735  0.86974409     1.26300
O306        O  0.87029479  0.12874091  0.89329050    -0.67000
O307        O  0.81882183  0.24023861  0.87367812    -0.79300
C308        C  0.81999175  0.17897224  0.82710429     0.84200
O309        O  0.79619556  0.18345475  0.84115162    -0.66500
Ni310      Ni  0.78920710  0.18476336  0.91927374     1.27400
Ni311      Ni  0.80500260  0.10779519  0.89485388     1.26100
H312        H  0.76417986  0.09669907  0.86321331     0.38700
C313        C  0.78745305  0.03252781  0.98269775    -0.11700
C314        C  0.74548184  0.02061441  0.99230809     0.14800
C315        C  0.71698195  0.03621689  0.98383621     0.01700
C316        C  0.73119317  0.06371041  0.96615474    -0.16100
C317        C  0.77304122  0.07548281  0.95622055    -0.10900
C318        C  0.80170637  0.05989862  0.96490813     0.08400
C319        C  0.73254601  0.99268075  0.01138249     0.09400
S320        S  0.66181868  0.02184508  0.99472955    -0.25200
H321        H  0.70852425  0.07493353  0.95980594     0.19700
S322        S  0.85747917  0.07481673  0.95467342    -0.30900
H323        H  0.80958945  0.02090640  0.98930235     0.10000
C324        C  0.71172932  0.94431599  0.01063781     0.03200
C325        C  0.69696861  0.91878356  0.02897896    -0.13200
C326        C  0.70304025  0.94077362  0.04805140    -0.08900
C327        C  0.72412061  0.98930592  0.04873547     0.06700
C328        C  0.73896919  0.01472021  0.03043996    -0.14000
S329        S  0.70276462  0.91521621  0.98623590    -0.30900
H330        H  0.68071273  0.88158810  0.02851972     0.10900
S331        S  0.73109059  0.02062405  0.07228520    -0.28000
H332        H  0.75455560  0.05188416  0.03098245     0.08200
H333        H  0.87096076  0.12137502  0.95132662     0.26600
H334        H  0.68126810  0.87013289  0.99415248     0.21400
H335        H  0.69087250  0.98629314  0.08187477     0.26700
H336        H  0.65071430  0.97807378  0.00210790     0.15500
C337        C  0.78824388  0.82377529  0.87127807    -0.11700
C338        C  0.81526026  0.86281134  0.88340553     0.14800
C339        C  0.85315004  0.86592468  0.89428023     0.01700
C340        C  0.86473113  0.83143153  0.89191475    -0.16100
C341        C  0.83944444  0.79363274  0.87881531    -0.10900
C342        C  0.79966869  0.78906910  0.86896550     0.08400
C343        C  0.80894782  0.90330557  0.88115902     0.09400
S344        S  0.89090858  0.91541113  0.90963121    -0.25200
H345        H  0.89541481  0.83559477  0.89947493     0.19700
S346        S  0.76267486  0.74051820  0.85293009    -0.30900
H347        H  0.75926480  0.82138360  0.86281013     0.10000
C348        C  0.82934007  0.93348927  0.86448642     0.03200
C349        C  0.82520048  0.97283169  0.86294064    -0.13200
C350        C  0.80123464  0.98356261  0.87778276    -0.08900
C351        C  0.77925942  0.95196736  0.89421322     0.06700
C352        C  0.78346140  0.91234526  0.89568574    -0.14000
S353        S  0.86207589  0.92262877  0.84536943    -0.30900
H354        H  0.84223814  0.99610641  0.85024804     0.10900
S355        S  0.74540666  0.95955632  0.91374357    -0.28000
H356        H  0.76723774  0.88864332  0.90837540     0.08200
H357        H  0.76902934  0.70820086  0.86414742     0.26600
H358        H  0.87470851  0.96189526  0.83320879     0.21400
H359        H  0.72067148  0.97059611  0.89956106     0.26700
H360        H  0.85610658  0.92289066  0.91744491     0.15500
C361        C  0.86792439  0.38724738  0.87271689    -0.11700
C362        C  0.84220313  0.40017135  0.88527586     0.14800
C363        C  0.80897277  0.36759086  0.89882076     0.01700
C364        C  0.80366430  0.32364294  0.90018063    -0.16100
C365        C  0.82965080  0.31050285  0.88785397    -0.10900
C366        C  0.86217589  0.34286865  0.87389243     0.08400
C367        C  0.85070161  0.44782738  0.88420642     0.09400
S368        S  0.77193024  0.37960047  0.91471006    -0.25200
H369        H  0.77795354  0.29896409  0.91064001     0.19700
S370        S  0.89859174  0.33054101  0.85782702    -0.30900
H371        H  0.89329555  0.41222140  0.86224379     0.10000
C372        C  0.87440542  0.47987094  0.89998809     0.03200
C373        C  0.87511757  0.52210811  0.90009099    -0.13200
C374        C  0.85286179  0.53307129  0.88461088    -0.08900
C375        C  0.83159838  0.50172770  0.86813820     0.06700
C376        C  0.83075215  0.45959258  0.86814642    -0.14000
S377        S  0.90212717  0.46608219  0.92038221    -0.30900
H378        H  0.89152217  0.54597424  0.91268569     0.10900
S379        S  0.80021164  0.51087341  0.84799332    -0.28000
H380        H  0.81234616  0.43475801  0.85608038     0.08200
H381        H  0.90513673  0.30367275  0.87260551     0.26600
H382        H  0.91874491  0.50763275  0.93131774     0.21400
H383        H  0.84000352  0.54969345  0.84042324     0.26700
H384        H  0.77068341  0.41243192  0.90170230     0.15500
C385        C  0.00690365  0.75588533  0.96997511    -0.11700
C386        C  0.98503223  0.74229413  0.98916189     0.14800
C387        C  0.93667854  0.71367021  0.98998674     0.01700
C388        C  0.91138427  0.69931839  0.97164072    -0.16100
C389        C  0.93320168  0.71301371  0.95239444    -0.10900
C390        C  0.98172607  0.74077222  0.95164704     0.08400
C391        C  0.01407992  0.75511978  0.00786334     0.09400
S392        S  0.90546921  0.69305985  0.01387614    -0.25200
H393        H  0.87428390  0.67737482  0.97238597     0.19700
S394        S  0.01398588  0.75445333  0.92799969    -0.30900
H395        H  0.04413965  0.77666949  0.96928921     0.10000
C396        C  0.02697658  0.72474822  0.01655363     0.03200
C397        C  0.05509720  0.73823959  0.03408690    -0.13200
C398        C  0.07066974  0.78159062  0.04325715    -0.08900
C399        C  0.05814654  0.81229241  0.03421049     0.06700
C400        C  0.02989395  0.79861357  0.01672012    -0.14000
S401        S  0.00767928  0.66877700  0.00523216    -0.30900
H402        H  0.06434659  0.71449180  0.04090594     0.10900
S403        S  0.07828072  0.86986131  0.04363896    -0.28000
H404        H  0.02042436  0.82217804  0.00983580     0.08200
H405        H  0.98409689  0.71258875  0.91813514     0.26600
H406        H  0.02649091  0.65267336  0.02022758     0.21400
H407        H  0.12294880  0.87858306  0.04829073     0.26700
H408        H  0.93620166  0.73047709  0.02609614     0.15500
C409        C  0.86033708  0.85664295  0.10279204    -0.11700
C410        C  0.85150821  0.81455951  0.11137609     0.14800
C411        C  0.80880650  0.78676758  0.12135501     0.01700
C412        C  0.77839722  0.80361622  0.12438456    -0.16100
C413        C  0.78843762  0.84693365  0.11681165    -0.10900
C414        C  0.82906761  0.87264340  0.10504189     0.08400
C415        C  0.89064055  0.80548984  0.11343533     0.09400
S416        S  0.79190261  0.73008053  0.13106404    -0.25200
H417        H  0.74690151  0.78300327  0.13299841     0.19700
S418        S  0.84568147  0.92864929  0.09467226    -0.30900
H419        H  0.89307630  0.87850678  0.09527891     0.10000
C420        C  0.91501549  0.80208218  0.09640804     0.03200
C421        C  0.95558206  0.80002803  0.09969082    -0.13200
C422        C  0.97236075  0.80112139  0.11969823    -0.08900
C423        C  0.94576624  0.80144635  0.13667386     0.06700
C424        C  0.90619856  0.80449849  0.13331848    -0.14000
S425        S  0.89451264  0.80027378  0.07054491    -0.30900
H426        H  0.97513821  0.79922008  0.08658497     0.10900
S427        S  0.95961989  0.79772856  0.16316459    -0.28000
H428        H  0.88758289  0.80688298  0.14647976     0.08200
H429        H  0.80712906  0.91160381  0.08160417     0.26600
H430        H  0.93091002  0.79899920  0.06032075     0.21400
H431        H  0.97320765  0.76489777  0.15928567     0.26700
H432        H  0.81888641  0.72133731  0.11718067     0.15500
C433        C  0.47285311  0.88421801  0.10866833    -0.11700
C434        C  0.43992080  0.85415725  0.12286238     0.14800
C435        C  0.45212591  0.82933943  0.13662886     0.01700
C436        C  0.49557500  0.83290524  0.13503813    -0.16100
C437        C  0.52748296  0.86071924  0.11994995    -0.10900
C438        C  0.51643756  0.88804656  0.10718477     0.08400
C439        C  0.39192370  0.84567491  0.12137051     0.09400
S440        S  0.41293259  0.79056337  0.15578145    -0.25200
H441        H  0.50337840  0.81154020  0.14485031     0.19700
S442        S  0.55614426  0.92769873  0.08842611    -0.30900
H443        H  0.46396523  0.90372221  0.09818642     0.10000
C444        C  0.37971404  0.87824123  0.12805268     0.03200
C445        C  0.33401800  0.86891322  0.12560562    -0.13200
C446        C  0.30028302  0.82768515  0.11648681    -0.08900
C447        C  0.31249645  0.79456377  0.11047333     0.06700
C448        C  0.35800666  0.80410843  0.11273288    -0.14000
S449        S  0.42223101  0.93129159  0.13994700    -0.30900
H450        H  0.32467821  0.89409698  0.13044876     0.10900
S451        S  0.27114360  0.73859949  0.10065736    -0.28000
H452        H  0.36704936  0.77868205  0.10785958     0.08200
H453        H  0.59630157  0.93666140  0.09911515     0.26600
H454        H  0.39263408  0.94885547  0.14393208     0.21400
H455        H  0.23535373  0.73371050  0.11354331     0.26700
H456        H  0.38669869  0.81246256  0.15800300     0.15500
C457        C  0.54969936  0.38247308  0.86642515    -0.11700
C458        C  0.55558920  0.41772773  0.87988304     0.14800
C459        C  0.51871223  0.41080770  0.89279059     0.01700
C460        C  0.47814128  0.36786294  0.89300012    -0.16100
C461        C  0.47287223  0.33174065  0.88020399    -0.10900
C462        C  0.50877359  0.33981919  0.86633708     0.08400
C463        C  0.60234039  0.45837668  0.88221060     0.09400
S464        S  0.52252114  0.45428596  0.91036133    -0.25200
H465        H  0.45099209  0.36207400  0.90374296     0.19700
S466        S  0.50674251  0.29519861  0.85015964    -0.30900
H467        H  0.57807204  0.38742357  0.85666072     0.10000
C468        C  0.63127100  0.46057957  0.89841192     0.03200
C469        C  0.67537344  0.49924432  0.90028260    -0.13200
C470        C  0.69161859  0.53610729  0.88626466    -0.08900
C471        C  0.66205118  0.53402400  0.87017846     0.06700
C472        C  0.61814080  0.49492722  0.86815046    -0.14000
S473        S  0.61244476  0.41339625  0.91641116    -0.30900
H474        H  0.69783318  0.50018216  0.91247126     0.10900
S475        S  0.67729861  0.58062484  0.85230922    -0.28000
H476        H  0.59571033  0.49337291  0.85579119     0.08200
H477        H  0.46776011  0.28913657  0.83933873     0.26600
H478        H  0.65324367  0.43209174  0.92804641     0.21400
H479        H  0.70107430  0.61574846  0.86688512     0.26700
H480        H  0.55555322  0.49252249  0.89920635     0.15500
C481        C  0.08733139  0.89542965  0.85979774    -0.11700
C482        C  0.10023204  0.91670212  0.87912689     0.14800
C483        C  0.07419513  0.89272517  0.89661766     0.01700
C484        C  0.03459053  0.84936226  0.89422218    -0.16100
C485        C  0.02071048  0.82865375  0.87474306    -0.10900
C486        C  0.04855684  0.85165987  0.85745455     0.08400
C487        C  0.13746332  0.96569605  0.87999382     0.09400
S488        S  0.08898976  0.91619281  0.92226789    -0.25200
H489        H  0.01349370  0.83254301  0.90758483     0.19700
S490        S  0.03656288  0.82729989  0.83192496    -0.30900
H491        H  0.10717673  0.91356370  0.84630965     0.10000
C492        C  0.18361755  0.97950272  0.87506496     0.03200
C493        C  0.21632592  0.02671956  0.87369406    -0.13200
C494        C  0.20388981  0.06036895  0.87744039    -0.08900
C495        C  0.15788762  0.04633305  0.88290213     0.06700
C496        C  0.12530801  0.99936434  0.88404318    -0.14000
S497        S  0.20066839  0.93702787  0.87026287    -0.30900
H498        H  0.25143904  0.03754923  0.86921952     0.10900
S499        S  0.13746025  0.08652753  0.88621109    -0.28000
H500        H  0.08972496  0.98891279  0.88744120     0.08200
H501        H  0.01912345  0.78155398  0.83852535     0.26600
H502        H  0.24829175  0.96816848  0.86885003     0.21400
H503        H  0.17273187  0.11544434  0.89977503     0.26700
H504        H  0.13650723  0.94413915  0.91862535     0.15500
C505        C  0.50309654  0.12093390  0.87159080    -0.11700
C506        C  0.54289303  0.14749357  0.88338576     0.14800
C507        C  0.54544095  0.18320155  0.89587157     0.01700
C508        C  0.50825936  0.19104053  0.89657855    -0.16100
C509        C  0.46832218  0.16475239  0.88481149    -0.10900
C510        C  0.46557950  0.12874254  0.87237849     0.08400
C511        C  0.58161347  0.13793081  0.88261131     0.09400
S512        S  0.59535815  0.22040682  0.91119840    -0.25200
H513        H  0.51108255  0.21890750  0.90610652     0.19700
S514        S  0.41451197  0.08999926  0.85818461    -0.30900
H515        H  0.50083900  0.09326208  0.86211081     0.10000
C516        C  0.59272207  0.11949764  0.89970257     0.03200
C517        C  0.63558551  0.12155212  0.90039011    -0.13200
C518        C  0.66744674  0.14084784  0.88412459    -0.08900
C519        C  0.65356962  0.15424216  0.86599168     0.06700
C520        C  0.61121880  0.15320932  0.86557909    -0.14000
S521        S  0.55324861  0.09555565  0.92109547    -0.30900
H522        H  0.64522407  0.11005345  0.91410901     0.10900
S523        S  0.68977274  0.17719213  0.84363692    -0.28000
H524        H  0.60236693  0.16674311  0.85228477     0.08200
H525        H  0.38330352  0.08969478  0.87277244     0.26600
H526        H  0.57880362  0.08002274  0.93229113     0.21400
H527        H  0.69415282  0.13782269  0.84110999     0.26700
H528        H  0.62826893  0.22097048  0.89759405     0.15500
C529        C  0.10889207  0.20357791  0.86218286    -0.11700
C530        C  0.09283228  0.20098533  0.88233588     0.14800
C531        C  0.12217825  0.20626733  0.89895831     0.01700
C532        C  0.16556423  0.21103940  0.89507567    -0.16100
C533        C  0.18082885  0.21117131  0.87486766    -0.10900
C534        C  0.15261636  0.20955739  0.85825410     0.08400
C535        C  0.04415833  0.18925424  0.88516922     0.09400
S536        S  0.10582057  0.20601802  0.92541109    -0.25200
H537        H  0.18680619  0.21296348  0.90800944     0.19700
S538        S  0.17021914  0.21547729  0.83167092    -0.30900
H539        H  0.08682190  0.20035678  0.84934572     0.10000
C540        C  0.02917911  0.22033774  0.87963680     0.03200
C541        C  0.98176963  0.20511456  0.87902842    -0.13200
C542        C  0.94901978  0.15954713  0.88410968    -0.08900
C543        C  0.96426365  0.12920139  0.89076531     0.06700
C544        C  0.01154071  0.14428763  0.89111293    -0.14000
S545        S  0.07049794  0.27899516  0.87276484    -0.30900
H546        H  0.96999804  0.22820310  0.87383694     0.10900
S547        S  0.92505002  0.06941343  0.89655786    -0.28000
H548        H  0.02291324  0.12016283  0.89514710     0.08200
H549        H  0.21664408  0.24799100  0.83566025     0.26600
H550        H  0.03843470  0.29377704  0.86939672     0.21400
H551        H  0.89551713  0.07783706  0.90881954     0.26700
H552        H  0.07584738  0.22316584  0.92158899     0.15500
C553        C  0.89256790  0.09291950  0.13690705    -0.11700
C554        C  0.90886307  0.10781427  0.11688852     0.14800
C555        C  0.88034650  0.08375561  0.10002546     0.01700
C556        C  0.83763927  0.04390056  0.10352982    -0.16100
C557        C  0.82211709  0.02776988  0.12360214    -0.10900
C558        C  0.84945794  0.05398787  0.14045239     0.08400
C559        C  0.95730756  0.14567853  0.11442143     0.09400
S560        S  0.89693931  0.10161633  0.07374186    -0.25200
H561        H  0.81716077  0.02448247  0.09042992     0.19700
S562        S  0.83135332  0.04007854  0.16688529    -0.30900
H563        H  0.91403049  0.11150123  0.14994006     0.10000
C564        C  0.97165362  0.19080934  0.12126048     0.03200
C565        C  0.01892602  0.22327881  0.12225636    -0.13200
C566        C  0.05216435  0.21178862  0.11616026    -0.08900
C567        C  0.03767847  0.16737968  0.10822180     0.06700
C568        C  0.99040479  0.13481289  0.10743148    -0.14000
S569        S  0.92969755  0.20670646  0.12904098    -0.30900
H570        H  0.03020623  0.25734770  0.12837495     0.10900
S571        S  0.07933524  0.15060570  0.10097643    -0.28000
H572        H  0.97915377  0.10000871  0.10233391     0.08200
H573        H  0.78448228  0.02400540  0.16284696     0.26600
H574        H  0.96120926  0.25344168  0.13292777     0.21400
H575        H  0.04756101  0.10457853  0.09595511     0.26700
H576        H  0.92596164  0.14865200  0.07806947     0.15500
C577        C  0.38023921  0.55043688  0.13144763    -0.11700
C578        C  0.41489611  0.55895146  0.11717248     0.14800
C579        C  0.40758047  0.52461607  0.10260304     0.01700
C580        C  0.36489323  0.48370893  0.10195308    -0.16100
C581        C  0.32919392  0.47595858  0.11564271    -0.10900
C582        C  0.33762101  0.50971892  0.13080111     0.08400
C583        C  0.45461619  0.60646048  0.11582455     0.09400
S584        S  0.44994164  0.53237698  0.08346515    -0.25200
H585        H  0.35882760  0.45852462  0.09010037     0.19700
S586        S  0.29336537  0.50646551  0.14760205    -0.30900
H587        H  0.38537084  0.57709654  0.14234839     0.10000
C588        C  0.45516320  0.63741536  0.10104720     0.03200
C589        C  0.49255412  0.68245234  0.10029253    -0.13200
C590        C  0.52964185  0.69792035  0.11417024    -0.08900
C591        C  0.52861508  0.66665700  0.12918319     0.06700
C592        C  0.49094516  0.62155115  0.12995528    -0.14000
S593        S  0.40728074  0.61999611  0.08356988    -0.30900
H594        H  0.49233486  0.70611626  0.08901991     0.10900
S595        S  0.57453478  0.68131503  0.14733238    -0.28000
H596        H  0.49021843  0.59779043  0.14146242     0.08200
H597        H  0.28591297  0.46539743  0.15661098     0.26600
H598        H  0.42355691  0.66293811  0.07390296     0.21400
H599        H  0.60995312  0.70549620  0.13291719     0.26700
H600        H  0.48870802  0.56524938  0.09437106     0.15500
C601        C  0.10853926  0.59426208  0.10314874    -0.11700
C602        C  0.13565226  0.58895726  0.11815192     0.14800
C603        C  0.15773627  0.62355020  0.13322499     0.01700
C604        C  0.15496613  0.66385622  0.13213298    -0.16100
C605        C  0.13114680  0.67104652  0.11609009    -0.10900
C606        C  0.10564690  0.63461021  0.10209218     0.08400
C607        C  0.14518622  0.55029993  0.11619719     0.09400
S608        S  0.19344963  0.62021054  0.15312248    -0.25200
H609        H  0.17474294  0.69135269  0.14297678     0.19700
S610        S  0.06968691  0.63797401  0.08231377    -0.30900
H611        H  0.09091248  0.56752740  0.09171875     0.10000
C612        C  0.11634651  0.50666704  0.12500338     0.03200
C613        C  0.12825450  0.47196510  0.12330300    -0.13200
C614        C  0.16822615  0.47992464  0.11272110    -0.08900
C615        C  0.19721029  0.52404710  0.10409517     0.06700
C616        C  0.18516916  0.55836521  0.10577787    -0.14000
S617        S  0.06481620  0.49559467  0.13859680    -0.30900
H618        H  0.10601788  0.43829861  0.12991291     0.10900
S619        S  0.25106706  0.53961679  0.09148616    -0.28000
H620        H  0.20768968  0.59209550  0.09923012     0.08200
H621        H  0.06035399  0.66896789  0.09299365     0.26600
H622        H  0.05218322  0.45079901  0.14515262     0.21400
H623        H  0.26233865  0.51290510  0.10424593     0.26700
H624        H  0.16942717  0.57197724  0.15484049     0.15500
C625        C  0.13530745  0.01382871  0.10916625    -0.11700
C626        C  0.18026348  0.04693619  0.11493418     0.14800
C627        C  0.21123866  0.03210360  0.12113351     0.01700
C628        C  0.19594281  0.98480531  0.12232461    -0.16100
C629        C  0.15077775  0.95182018  0.11679011    -0.10900
C630        C  0.12052724  0.96672672  0.10972271     0.08400
C631        C  0.19159055  0.09579040  0.11647095     0.09400
S632        S  0.27021799  0.07165282  0.12815032    -0.25200
H633        H  0.21921108  0.97358734  0.12793339     0.19700
S634        S  0.06113803  0.92717234  0.10347286    -0.30900
H635        H  0.11098779  0.02474396  0.10482646     0.10000
C636        C  0.18926544  0.12022344  0.09925734     0.03200
C637        C  0.19408288  0.16400161  0.10202156    -0.13200
C638        C  0.20145798  0.18415986  0.12163847    -0.08900
C639        C  0.20679236  0.16077252  0.13862306     0.06700
C640        C  0.20102668  0.11675480  0.13591661    -0.14000
S641        S  0.17963877  0.09549712  0.07378122    -0.30900
H642        H  0.18979556  0.18159832  0.08898793     0.10900
S643        S  0.22112313  0.18514974  0.16412824    -0.28000
H644        H  0.20314470  0.09830216  0.14918366     0.08200
H645        H  0.07119415  0.90063969  0.08995760     0.26600
H646        H  0.17793097  0.13147711  0.06342124     0.21400
H647        H  0.24865865  0.23092779  0.15740560     0.26700
H648        H  0.27527095  0.10830896  0.11576660     0.15500
C649        C  0.23578895  0.22494128  0.97598960    -0.11700
C650        C  0.26910108  0.26022868  0.98830200     0.14800
C651        C  0.31578573  0.28144611  0.98236857     0.01700
C652        C  0.32804120  0.26731692  0.96432171    -0.16100
C653        C  0.29484688  0.23250424  0.95156620    -0.10900
C654        C  0.24785763  0.21063666  0.95778716     0.08400
C655        C  0.25421780  0.27376140  0.00738202     0.09400
S656        S  0.36150332  0.32711707  0.99703995    -0.25200
H657        H  0.36413162  0.28456264  0.96007457     0.19700
S658        S  0.20265676  0.16358663  0.94335893    -0.30900
H659        H  0.20011161  0.20845835  0.98081721     0.10000
C660        C  0.23152050  0.29962466  0.00657840     0.03200
C661        C  0.21969080  0.31336036  0.02498146    -0.13200
C662        C  0.22962615  0.30138191  0.04425247    -0.08900
C663        C  0.25259208  0.27560641  0.04496166     0.06700
C664        C  0.26412364  0.26170594  0.02660043    -0.14000
S665        S  0.21899940  0.31642564  0.98209008    -0.30900
H666        H  0.20263104  0.33355980  0.02439748     0.10900
S667        S  0.27073916  0.26178181  0.06868529    -0.28000
H668        H  0.28201975  0.24227962  0.02727608     0.08200
H669        H  0.16551041  0.15616424  0.95603477     0.26600
H670        H  0.19369339  0.33620815  0.98993962     0.21400
H671        H  0.28103732  0.30292099  0.07882787     0.26700
H672        H  0.33542697  0.34635599  0.00449961     0.15500
C673        C  0.79160159  0.14113734  0.73225957    -0.11700
C674        C  0.80182728  0.18448639  0.73974037     0.14800
C675        C  0.81480863  0.22114642  0.72570772     0.01700
C676        C  0.82024472  0.21442942  0.70478389    -0.16100
C677        C  0.81347273  0.17191314  0.69757757    -0.10900
C678        C  0.79706002  0.13440273  0.71142472     0.08400
C679        C  0.80570202  0.19145592  0.76236754     0.09400
S680        S  0.82783292  0.27790416  0.73377055    -0.25200
H681        H  0.83281181  0.24345411  0.69433509     0.19700
S682        S  0.78420934  0.07751633  0.70362268    -0.30900
H683        H  0.78142825  0.11280945  0.74293737     0.10000
C684        C  0.76669916  0.17302798  0.77529729     0.03200
C685        C  0.77247721  0.17332096  0.79675649    -0.13200
C686        C  0.81650986  0.19092905  0.80547573    -0.08900
C687        C  0.85559115  0.21232704  0.79248430     0.06700
C688        C  0.84974996  0.21220260  0.77116097    -0.14000
S689        S  0.70961726  0.14724736  0.76438921    -0.30900
H690        H  0.74248617  0.15679002  0.80663477     0.10900
S691        S  0.91380461  0.23917053  0.80210926    -0.28000
H692        H  0.87981386  0.22672923  0.76125337     0.08200
H693        H  0.77147135  0.08100508  0.68336286     0.26600
H694        H  0.68567567  0.13784350  0.78318236     0.21400
H695        H  0.90381923  0.25197668  0.82121687     0.26700
H696        H  0.80086882  0.26386477  0.75174974     0.15500
C697        C  0.01357429  0.23007226  0.47776913    -0.11700
C698        C  0.03106165  0.26001189  0.49464405     0.14800
C699        C  0.07299426  0.30190776  0.49245288     0.01700
C700        C  0.09436768  0.31447191  0.47313538    -0.16100
C701        C  0.07606301  0.28528675  0.45594497    -0.10900
C702        C  0.03536534  0.24218169  0.45854525     0.08400
C703        C  0.00321145  0.24748518  0.51383264     0.09400
S704        S  0.10119627  0.34046099  0.51373209    -0.25200
H705        H  0.12607173  0.34714269  0.47160556     0.19700
S706        S  0.00730966  0.20263257  0.43771120    -0.33300
H707        H  0.98153829  0.19773086  0.47937945     0.10000
C708        C  0.98137533  0.27194906  0.52037720     0.03200
C709        C  0.95357253  0.25749812  0.53805250    -0.13200
C710        C  0.94638150  0.21862088  0.54942539    -0.08900
C711        C  0.96831103  0.19397495  0.54263509     0.06700
C712        C  0.99625174  0.20872953  0.52496269    -0.14000
S713        S  0.98707904  0.32039347  0.50571280    -0.30900
H714        H  0.93713063  0.27667612  0.54295709     0.10900
S715        S  0.95962509  0.14226579  0.55532971    -0.28000
H716        H  0.01236550  0.18958780  0.51952448     0.08200
H717        H  0.00833068  0.23700498  0.42492908     0.26600
H718        H  0.96159095  0.33230392  0.51905269     0.21400
H719        H  0.99633260  0.14015326  0.54588203     0.26700
H720        H  0.08375516  0.30633990  0.52909266     0.15500
C721        C  0.18510326  0.40378477  0.27437722    -0.11700
C722        C  0.19609454  0.37784901  0.26097032     0.14800
C723        C  0.20543005  0.34435675  0.26921598     0.01700
C724        C  0.20096792  0.33571117  0.29038449    -0.16100
C725        C  0.18642057  0.35900984  0.30371015    -0.10900
C726        C  0.17970956  0.39449050  0.29557135     0.08400
C727        C  0.19284579  0.38247840  0.23841639     0.09400
S728        S  0.22110601  0.30988840  0.25348078    -0.25200
H729        H  0.20685296  0.30889352  0.29637843     0.19700
S730        S  0.16033114  0.42635566  0.31092760    -0.30900
H731        H  0.17800058  0.42957235  0.26811105     0.10000
C732        C  0.14956468  0.36092740  0.22857365     0.03200
C733        C  0.14739194  0.35732322  0.20704504    -0.13200
C734        C  0.18753884  0.37412841  0.19506355    -0.08900
C735        C  0.23095639  0.39746728  0.20498227     0.06700
C736        C  0.23307253  0.40224682  0.22646429    -0.14000
S737        S  0.09700433  0.33406864  0.24352029    -0.30900
H738        H  0.11416407  0.33894355  0.19953177     0.10900
S739        S  0.28477034  0.41693119  0.19168378    -0.28000
H740        H  0.26630341  0.41820480  0.23405454     0.08200
H741        H  0.12452516  0.38704082  0.32047774     0.26600
H742        H  0.06627920  0.31686543  0.22682048     0.21400
H743        H  0.26837950  0.37980041  0.17784688     0.26700
H744        H  0.19196688  0.30446434  0.23687781     0.15500
C745        C  0.38068441  0.13911013  0.73046237    -0.11700
C746        C  0.39396678  0.18466476  0.73574407     0.14800
C747        C  0.40380297  0.21722580  0.71988690     0.01700
C748        C  0.39476764  0.20234518  0.69936336    -0.16100
C749        C  0.37702367  0.15576093  0.69434103    -0.10900
C750        C  0.37251036  0.12442628  0.70992197     0.08400
C751        C  0.38971278  0.19439358  0.75769784     0.09400
S752        S  0.42533889  0.27749131  0.72497787    -0.25200
H753        H  0.39927481  0.22678631  0.68739698     0.19700
S754        S  0.35545961  0.06543088  0.70374905    -0.30900
H755        H  0.37400537  0.11437393  0.74259248     0.10000
C756        C  0.35290638  0.20045804  0.76418283     0.03200
C757        C  0.34439424  0.20096230  0.78522235    -0.13200
C758        C  0.37093055  0.19443678  0.80017800    -0.08900
C759        C  0.40900442  0.19027628  0.79371551     0.06700
C760        C  0.41807169  0.19049971  0.77256705    -0.14000
S761        S  0.31379981  0.20323872  0.74580878    -0.30900
H762        H  0.31550429  0.20470161  0.79008738     0.10900
S763        S  0.44484932  0.18094790  0.81142571    -0.28000
H764        H  0.44598282  0.18520391  0.76762023     0.08200
H765        H  0.36253271  0.05286748  0.72349394     0.26600
H766        H  0.28769611  0.21251124  0.75998274     0.21400
H767        H  0.40800775  0.14954136  0.82377441     0.26700
H768        H  0.44486868  0.27822958  0.74421491     0.15500
C769        C  0.54619041  0.14422463  0.63070103    -0.11700
C770        C  0.56051906  0.12840134  0.61384597     0.14800
C771        C  0.53000976  0.10805606  0.59713469     0.01700
C772        C  0.48791635  0.10757575  0.59685685    -0.16100
C773        C  0.47427834  0.12585786  0.61318133    -0.10900
C774        C  0.50345576  0.14258032  0.63075792     0.08400
C775        C  0.60867262  0.13698000  0.61335335     0.09400
S776        S  0.54363159  0.08378344  0.57528031    -0.25200
H777        H  0.46613741  0.09376382  0.58340670     0.19700
S778        S  0.49042662  0.16557838  0.65319870    -0.30900
H779        H  0.56920076  0.15938013  0.64369591     0.10000
C780        C  0.64192759  0.17041459  0.60011774     0.03200
C781        C  0.68666079  0.17683507  0.59959724    -0.13200
C782        C  0.69962508  0.15106663  0.61222881    -0.08900
C783        C  0.66616470  0.11772346  0.62561188     0.06700
C784        C  0.62139879  0.11145824  0.62617926    -0.14000
S785        S  0.62799402  0.20640459  0.58446960    -0.30900
H786        H  0.71215406  0.20307395  0.58961861     0.10900
S787        S  0.67762455  0.08071607  0.64163658    -0.28000
H788        H  0.59592205  0.08569326  0.63635417     0.08200
H789        H  0.44808258  0.12507433  0.65667393     0.26600
H790        H  0.67032659  0.22987551  0.57398172     0.21400
H791        H  0.70545873  0.07503005  0.62704858     0.26700
H792        H  0.57225466  0.07133903  0.58596620     0.15500
C793        C  0.09905725  0.19277536  0.64102762    -0.11700
C794        C  0.10621871  0.17349329  0.62315920     0.14800
C795        C  0.07616353  0.16425924  0.60622832     0.01700
C796        C  0.03994345  0.17390307  0.60770685    -0.16100
C797        C  0.03077649  0.18974322  0.62615314    -0.10900
C798        C  0.06191705  0.20084159  0.64272345     0.08400
C799        C  0.14179227  0.15890860  0.62381437     0.09400
S800        S  0.07897804  0.13604564  0.58307533    -0.25200
H801        H  0.01625824  0.16504592  0.59493118     0.19700
S802        S  0.05582819  0.22485673  0.66656877    -0.30900
H803        H  0.12188065  0.20029398  0.65406995     0.10000
C804        C  0.18054644  0.17701240  0.61061034     0.03200
C805        C  0.21176510  0.16036221  0.61190369    -0.13200
C806        C  0.20593934  0.12690718  0.62652742    -0.08900
C807        C  0.16726347  0.10933797  0.63982642     0.06700
C808        C  0.13616476  0.12561664  0.63839504    -0.14000
S809        S  0.19170313  0.22288191  0.59286610    -0.30900
H810        H  0.24148234  0.17423883  0.60183410     0.10900
S811        S  0.15407829  0.06437661  0.65834423    -0.28000
H812        H  0.10649350  0.11135710  0.64853821     0.08200
H813        H  0.03391764  0.24735378  0.65788414     0.26600
H814        H  0.22929653  0.22370194  0.58278706     0.21400
H815        H  0.16391774  0.03772829  0.64479929     0.26700
H816        H  0.09387070  0.10819056  0.59267868     0.15500
C817        C  0.29285193  0.04086663  0.50606942    -0.11700
C818        C  0.25006890  0.00026236  0.50753423     0.14800
C819        C  0.22558517  0.98948255  0.52627574     0.01700
C820        C  0.24506645  0.01853415  0.54326050    -0.16100
C821        C  0.28842463  0.05894358  0.54204394    -0.10900
C822        C  0.31193778  0.07056868  0.52291742     0.08400
C823        C  0.23363192  0.96839143  0.48971833     0.09400
S824        S  0.16980637  0.93875052  0.52963637    -0.25200
H825        H  0.22644386  0.00873885  0.55770139     0.19700
S826        S  0.36586403  0.12289355  0.51874608    -0.30900
H827        H  0.31165719  0.04935850  0.49165544     0.10000
C828        C  0.21846512  0.97918460  0.47146421     0.03200
C829        C  0.20555257  0.94893810  0.45466090    -0.13200
C830        C  0.20819767  0.90830656  0.45551762    -0.08900
C831        C  0.22196606  0.89687158  0.47419768     0.06700
C832        C  0.23458612  0.92713461  0.49100496    -0.14000
S833        S  0.21535682  0.03138566  0.46961742    -0.30900
H834        H  0.19440562  0.95763823  0.44058676     0.10900
S835        S  0.22228003  0.84336588  0.47723318    -0.28000
H836        H  0.24580151  0.91903453  0.50523426     0.08200
H837        H  0.35365010  0.15057018  0.53041792     0.26600
H838        H  0.19868233  0.02482930  0.44931703     0.21400
H839        H  0.23767797  0.85011834  0.49774846     0.26700
H840        H  0.15534263  0.93605951  0.50912603     0.15500
C841        C  0.22591025  0.08249483  0.39810497    -0.11700
C842        C  0.20181438  0.09469180  0.38410570     0.14800
C843        C  0.18125900  0.06657137  0.36673150     0.01700
C844        C  0.18456171  0.02705138  0.36382181    -0.16100
C845        C  0.20671560  0.01321042  0.37817517    -0.10900
C846        C  0.22905929  0.04245031  0.39520023     0.08400
C847        C  0.19888618  0.13715309  0.38720377     0.09400
S848        S  0.14894835  0.07845329  0.34790279    -0.25200
H849        H  0.16744306  0.00565247  0.35057438     0.19700
S850        S  0.26415820  0.03218597  0.41299415    -0.30900
H851        H  0.24279115  0.10456532  0.41120744     0.10000
C852        C  0.16641359  0.13788450  0.40079463     0.03200
C853        C  0.15607747  0.17367443  0.39934810    -0.13200
C854        C  0.17678031  0.20819652  0.38421971    -0.08900
C855        C  0.21307073  0.21000462  0.37229755     0.06700
C856        C  0.22339997  0.17441574  0.37380322    -0.14000
S857        S  0.13436451  0.09056703  0.41831412    -0.30900
H858        H  0.12880678  0.17236151  0.40879069     0.10900
S859        S  0.24654460  0.25595209  0.35441102    -0.28000
H860        H  0.24904500  0.17443686  0.36361550     0.08200
H861        H  0.27986426  0.01225410  0.39833443     0.26600
H862        H  0.11022609  0.10945452  0.42823014     0.21400
H863        H  0.24250837  0.28990519  0.36546946     0.26700
H864        H  0.12897966  0.09528257  0.36196289     0.15500
C865        C  0.10005661  0.50228423  0.38940538    -0.11700
C866        C  0.12972671  0.53610280  0.37543058     0.14800
C867        C  0.15625012  0.52580104  0.36182738     0.01700
C868        C  0.15562467  0.48383337  0.36369177    -0.16100
C869        C  0.12923460  0.45171401  0.37897103    -0.10900
C870        C  0.09920859  0.46010530  0.39116948     0.08400
C871        C  0.13868119  0.58396681  0.37792310     0.09400
S872        S  0.19498384  0.56658849  0.34314338    -0.25200
H873        H  0.17891964  0.47798916  0.35425730     0.19700
S874        S  0.06042826  0.41903249  0.40974515    -0.30900
H875        H  0.07919788  0.50973596  0.39973593     0.10000
C876        C  0.11146549  0.59992734  0.36843829     0.03200
C877        C  0.12257443  0.64608108  0.37126204    -0.13200
C878        C  0.16024584  0.67653684  0.38354133    -0.08900
C879        C  0.18779266  0.66021398  0.39270181     0.06700
C880        C  0.17638371  0.61429761  0.38997428    -0.14000
S881        S  0.06320246  0.56167554  0.35253802    -0.30900
H882        H  0.10151311  0.65834725  0.36412611     0.10900
S883        S  0.23925114  0.69635606  0.40730760    -0.28000
H884        H  0.19769830  0.60218344  0.39704195     0.08200
H885        H  0.05634214  0.37995577  0.39967893     0.26600
H886        H  0.05093363  0.59440843  0.34644598     0.21400
H887        H  0.25334201  0.73588111  0.39521021     0.26700
H888        H  0.17017277  0.58975526  0.34023263     0.15500
C889        C  0.17931572  0.77375214  0.22525521    -0.11700
C890        C  0.18517934  0.80950775  0.23837568     0.14800
C891        C  0.18894598  0.84995236  0.22992164     0.01700
C892        C  0.18400732  0.85281346  0.20877100    -0.16100
C893        C  0.17562449  0.81622660  0.19551626    -0.10900
C894        C  0.17421578  0.77648056  0.20394388     0.08400
C895        C  0.18135485  0.80219995  0.26087685     0.09400
S896        S  0.19675509  0.89777837  0.24557347    -0.25200
H897        H  0.18565049  0.88372467  0.20269404     0.19700
S898        S  0.16225647  0.72665623  0.18880967    -0.30900
H899        H  0.17611130  0.74251954  0.23178329     0.10000
C900        C  0.13849067  0.78525713  0.27079327     0.03200
C901        C  0.13692447  0.78738298  0.29228678    -0.13200
C902        C  0.17742387  0.80653182  0.30407897    -0.08900
C903        C  0.22017486  0.82162414  0.29407855     0.06700
C904        C  0.22148845  0.81821239  0.27263618    -0.14000
S905        S  0.08609060  0.76350068  0.25596456    -0.30900
H906        H  0.10421451  0.77592057  0.29991768     0.10900
S907        S  0.27467795  0.85057699  0.30728649    -0.28000
H908        H  0.25444781  0.83173196  0.26492829     0.08200
H909        H  0.12363330  0.72411216  0.17898461     0.26600
H910        H  0.05560344  0.75010269  0.27278184     0.21400
H911        H  0.26276522  0.87636718  0.32042659     0.26700
H912        H  0.23057166  0.89762092  0.25828125     0.15500
C913        C  0.84746647  0.62749425  0.72899623    -0.11700
C914        C  0.80444322  0.60044995  0.73841116     0.14800
C915        C  0.76489462  0.57692899  0.72587659     0.01700
C916        C  0.76868445  0.58419971  0.70448695    -0.16100
C917        C  0.81136421  0.61416365  0.69526614    -0.10900
C918        C  0.85144419  0.63392188  0.70766077     0.08400
C919        C  0.80184641  0.60294944  0.76120254     0.09400
S920        S  0.70857791  0.53874859  0.73638093    -0.25200
H921        H  0.73774534  0.56835237  0.69516358     0.19700
S922        S  0.90865021  0.66846829  0.69722787    -0.30900
H923        H  0.87811514  0.64516057  0.73844328     0.10000
C924        C  0.82402626  0.58673215  0.77443609     0.03200
C925        C  0.82826302  0.59789894  0.79548927    -0.13200
C926        C  0.81114663  0.62535605  0.80350883    -0.08900
C927        C  0.78576486  0.63835659  0.79054865     0.06700
C928        C  0.78161108  0.62728368  0.76957673    -0.14000
S929        S  0.84842816  0.55334253  0.76435941    -0.30900
H930        H  0.84763364  0.58786291  0.80544901     0.10900
S931        S  0.75911504  0.67028931  0.79978824    -0.28000
H932        H  0.76414091  0.63946184  0.75952977     0.08200
H933        H  0.89858661  0.64578293  0.67809810     0.26600
H934        H  0.86326621  0.54516240  0.78333132     0.21400
H935        H  0.75360520  0.65470076  0.82025327     0.26700
H936        H  0.72422052  0.52681189  0.75414793     0.15500
C937        C  0.58660731  0.45827353  0.60266376    -0.11700
C938        C  0.57998342  0.42922949  0.61941065     0.14800
C939        C  0.61283637  0.44521738  0.63542663     0.01700
C940        C  0.65304135  0.48824699  0.63361563    -0.16100
C941        C  0.66161557  0.51587442  0.61603020    -0.10900
C942        C  0.62663050  0.50145379  0.60090025     0.08400
C943        C  0.54226560  0.38053096  0.61828456     0.09400
S944        S  0.60730036  0.41078185  0.65773690    -0.25200
H945        H  0.67934109  0.49854706  0.64535676     0.19700
S946        S  0.63153367  0.53578572  0.57864576    -0.30900
H947        H  0.56123477  0.44639290  0.59044031     0.10000
C948        C  0.49660378  0.36670164  0.62406831     0.03200
C949        C  0.46231553  0.31997757  0.62243439    -0.13200
C950        C  0.47269011  0.28699659  0.61470175    -0.08900
C951        C  0.51876274  0.30121732  0.60908092     0.06700
C952        C  0.55276417  0.34758923  0.61086169    -0.14000
S953        S  0.48220023  0.40863600  0.63346425    -0.30900
H954        H  0.42710855  0.30924790  0.62667149     0.10900
S955        S  0.53680720  0.26176092  0.60010577    -0.28000
H956        H  0.58791218  0.35815535  0.60648883     0.08200
H957        H  0.65925535  0.57846213  0.58837437     0.26600
H958        H  0.43503736  0.37770014  0.63670848     0.21400
H959        H  0.50757845  0.22611891  0.61344556     0.26700
H960        H  0.55895525  0.38453422  0.65765851     0.15500
C961        C  0.10034591  0.91777430  0.60207596    -0.11700
C962        C  0.09247798  0.87680146  0.61145695     0.14800
C963        C  0.12988992  0.87514820  0.62064678     0.01700
C964        C  0.17337260  0.91515957  0.62140147    -0.16100
C965        C  0.18062399  0.95679468  0.61292904    -0.10900
C966        C  0.14374175  0.95769483  0.60277315     0.08400
C967        C  0.04388924  0.83985250  0.61456892     0.09400
S968        S  0.12346593  0.82410440  0.63305169    -0.25200
H969        H  0.20126496  0.91431523  0.62945043     0.19700
S970        S  0.14794453  0.00983030  0.59273370    -0.30900
H971        H  0.07167055  0.91949069  0.59531445     0.10000
C972        C  0.02202961  0.83521338  0.63362947     0.03200
C973        C  0.97518792  0.80279338  0.63584945    -0.13200
C974        C  0.94883852  0.77411289  0.61945479    -0.08900
C975        C  0.97162387  0.77767897  0.60052258     0.06700
C976        C  0.01846939  0.81100408  0.59819191    -0.14000
S977        S  0.05302616  0.87261015  0.65494617    -0.30900
H978        H  0.95873430  0.80117873  0.65040681     0.10900
S979        S  0.94370391  0.74004943  0.57903699    -0.28000
H980        H  0.03537595  0.81422610  0.58356053     0.08200
H981        H  0.19379274  0.02970134  0.58626437     0.26600
H982        H  0.02038264  0.84691520  0.67021174     0.21400
H983        H  0.92349293  0.70019745  0.59132652     0.26700
H984        H  0.08481880  0.79237523  0.62171584     0.15500
C985        C  0.87936401  0.39167979  0.60788091    -0.11700
C986        C  0.84966989  0.39367332  0.62255966     0.14800
C987        C  0.82678946  0.35689254  0.63660201     0.01700
C988        C  0.83180589  0.31790146  0.63482445    -0.16100
C989        C  0.85916682  0.31451531  0.61924857    -0.10900
C990        C  0.88462810  0.35282728  0.60617252     0.08400
C991        C  0.83940798  0.43192495  0.62127134     0.09400
S992        S  0.78864677  0.35650271  0.65631727    -0.25200
H993        H  0.81194348  0.28883750  0.64493712     0.19700
S994        S  0.92366427  0.35393193  0.58675563    -0.30900
H995        H  0.89740946  0.42002281  0.59720499     0.10000
C996        C  0.87082474  0.47681942  0.62813368     0.03200
C997        C  0.86013208  0.51217408  0.62567905    -0.13200
C998        C  0.81891919  0.50362970  0.61619584    -0.08900
C999        C  0.78701716  0.45826668  0.60983585     0.06700
C1000       C  0.79772415  0.42314319  0.61230817    -0.14000
S1001       S  0.92430434  0.48888748  0.64010970    -0.30900
H1002       H  0.88431809  0.54680726  0.63074765     0.10900
S1003       S  0.73157616  0.44271891  0.59898763    -0.28000
H1004       H  0.77333432  0.38856663  0.60718772     0.08200
H1005       H  0.93515581  0.32432990  0.59725721     0.26600
H1006       H  0.94190196  0.53643475  0.64286520     0.21400
H1007       H  0.72455862  0.47336619  0.61114332     0.26700
H1008       H  0.81029986  0.40456832  0.65866323     0.15500
C1009       C  0.79327639  0.87071968  0.63639406    -0.11700
C1010       C  0.80595505  0.89541821  0.61783390     0.14800
C1011       C  0.81013381  0.87342712  0.59997566     0.01700
C1012       C  0.80619749  0.82972278  0.60155565    -0.16100
C1013       C  0.79610062  0.80625934  0.62046948    -0.10900
C1014       C  0.78634257  0.82602284  0.63766775     0.08400
C1015       C  0.81968024  0.94532693  0.61825407     0.09400
S1016       S  0.82104495  0.89954430  0.57481971    -0.25200
H1017       H  0.81251092  0.81467878  0.58805182     0.19700
S1018       S  0.76414087  0.79581108  0.66165807    -0.30900
H1019       H  0.78943443  0.88665174  0.65019582     0.10000
C1020       C  0.79077994  0.96115519  0.62633149     0.03200
C1021       C  0.80778621  0.00881116  0.62848312    -0.13200
C1022       C  0.85284778  0.04124885  0.62247987    -0.08900
C1023       C  0.88129963  0.02530463  0.61410072     0.06700
C1024       C  0.86468445  0.97793084  0.61226414    -0.14000
S1025       S  0.73204794  0.92100512  0.63370000    -0.30900
H1026       H  0.78603262  0.02098783  0.63499405     0.10900
S1027       S  0.94074623  0.06350010  0.60762911    -0.28000
H1028       H  0.88766579  0.96632668  0.60666419     0.08200
H1029       H  0.73847488  0.75205673  0.65251156     0.26600
H1030       H  0.72248003  0.95343984  0.64278993     0.21400
H1031       H  0.93057425  0.08901204  0.59362889     0.26700
H1032       H  0.80037481  0.92642123  0.57878175     0.15500
C1033       C  0.57971713  0.80544155  0.22729486    -0.11700
C1034       C  0.60899421  0.79880424  0.24052031     0.14800
C1035       C  0.64657872  0.79644546  0.23203583     0.01700
C1036       C  0.65640982  0.80466002  0.21102416    -0.16100
C1037       C  0.62889842  0.81405552  0.19780152    -0.10900
C1038       C  0.58874656  0.81224402  0.20603346     0.08400
C1039       C  0.60528943  0.80244567  0.26318542     0.09400
S1040       S  0.68562309  0.78689555  0.24759062    -0.25200
H1041       H  0.68685453  0.80510377  0.20506038     0.19700
S1042       S  0.55034334  0.82291483  0.19069742    -0.30900
H1043       H  0.55087877  0.80742561  0.23369699     0.10000
C1044       C  0.63444909  0.84442204  0.27320672     0.03200
C1045       C  0.63991501  0.84503833  0.29459926    -0.13200
C1046       C  0.61617617  0.80470682  0.30639366    -0.08900
C1047       C  0.58251438  0.76389203  0.29662852     0.06700
C1048       C  0.57783370  0.76297457  0.27506827    -0.14000
S1049       S  0.66742164  0.89668913  0.25850932    -0.30900
H1050       H  0.66510228  0.87655128  0.30207156     0.10900
S1051       S  0.54838516  0.71105281  0.31055024    -0.28000
H1052       H  0.55477699  0.73077060  0.26744532     0.08200
H1053       H  0.54021980  0.78635458  0.17709725     0.26600
H1054       H  0.68923917  0.92604524  0.27532814     0.21400
H1055       H  0.53593134  0.73206016  0.32606055     0.26700
H1056       H  0.65237469  0.75741274  0.26183954     0.15500
C1057       C  0.74601106  0.67705136  0.50781673    -0.11700
C1058       C  0.75610687  0.72298536  0.50685603     0.14800
C1059       C  0.77895823  0.75240428  0.52365628     0.01700
C1060       C  0.78931671  0.73494594  0.54123513    -0.16100
C1061       C  0.77832637  0.68855946  0.54254764    -0.10900
C1062       C  0.75755262  0.65980881  0.52512605     0.08400
C1063       C  0.73981997  0.73845092  0.48879813     0.09400
S1064       S  0.79536861  0.81253906  0.52372518    -0.25200
H1065       H  0.80556453  0.75790274  0.55414629     0.19700
S1066       S  0.74552561  0.60111141  0.52356335    -0.30900
H1067       H  0.72884824  0.65432651  0.49492479     0.10000
C1068       C  0.75900066  0.74319945  0.46898440     0.03200
C1069       C  0.74243839  0.75816017  0.45254279    -0.13200
C1070       C  0.70663429  0.76809881  0.45534342    -0.08900
C1071       C  0.68780808  0.76374799  0.47527619     0.06700
C1072       C  0.70451293  0.74889797  0.49168938    -0.14000
S1073       S  0.80512711  0.73101280  0.46465309    -0.30900
H1074       H  0.75684186  0.76126674  0.43731078     0.10900
S1075       S  0.64411514  0.77916186  0.48026099    -0.28000
H1076       H  0.69022047  0.74553994  0.50696172     0.08200
H1077       H  0.78816767  0.61097371  0.53201299     0.26600
H1078       H  0.81259109  0.74392680  0.44378189     0.21400
H1079       H  0.63785609  0.76752899  0.50127425     0.26700
H1080       H  0.80176958  0.81907207  0.50234174     0.15500
C1081       C  0.84353354  0.00248769  0.39992559    -0.11700
C1082       C  0.86380353  0.02871481  0.38219726     0.14800
C1083       C  0.84402696  0.01075352  0.36284222     0.01700
C1084       C  0.80688259  0.96588027  0.36142268    -0.16100
C1085       C  0.78789250  0.93803202  0.37899008    -0.10900
C1086       C  0.80524918  0.95790993  0.39860778     0.08400
C1087       C  0.90820524  0.07243219  0.38379249     0.09400
S1088       S  0.86615013  0.04270027  0.33922378    -0.25200
H1089       H  0.79395872  0.95222283  0.34623356     0.19700
S1090       S  0.78052883  0.92884611  0.42253442    -0.30900
H1091       H  0.85816555  0.01655687  0.41486617     0.10000
C1092       C  0.91109460  0.11363383  0.39073517     0.03200
C1093       C  0.95335602  0.15516378  0.38932566    -0.13200
C1094       C  0.99282019  0.15608959  0.38126771    -0.08900
C1095       C  0.99011072  0.11389851  0.37567330     0.06700
C1096       C  0.94793270  0.07293794  0.37674246    -0.14000
S1097       S  0.86045811  0.11358120  0.40028314    -0.30900
H1098       H  0.95525749  0.18719835  0.39378652     0.10900
S1099       S  0.03915904  0.10948403  0.36741253    -0.28000
H1100       H  0.94586466  0.04104161  0.37180048     0.08200
H1101       H  0.73491843  0.91220004  0.41597987     0.26600
H1102       H  0.88147890  0.16132841  0.40368001     0.21400
H1103       H  0.06984289  0.14353144  0.38099749     0.26700
H1104       H  0.88184784  0.08647787  0.34792485     0.15500
C1105       C  0.35819565  0.55173450  0.39324504    -0.11700
C1106       C  0.39291162  0.54583934  0.38426837     0.14800
C1107       C  0.38160656  0.50306812  0.37526008     0.01700
C1108       C  0.33577430  0.46692993  0.37582634    -0.16100
C1109       C  0.30123171  0.47246019  0.38540055    -0.10900
C1110       C  0.31257483  0.51590436  0.39367163     0.08400
C1111       C  0.43996058  0.58590980  0.38430062     0.09400
S1112       S  0.42334719  0.49198320  0.36280668    -0.25200
H1113       H  0.32726118  0.43382783  0.36930593     0.19700
S1114       S  0.27024097  0.52844927  0.40426766    -0.30900
H1115       H  0.36670418  0.58488155  0.39973429     0.10000
C1116       C  0.45413259  0.62013448  0.36905967     0.03200
C1117       C  0.49630637  0.66098832  0.37126311    -0.13200
C1118       C  0.52457571  0.66846217  0.38849141    -0.08900
C1119       C  0.51141573  0.63272387  0.40310791     0.06700
C1120       C  0.46897873  0.59213252  0.40099159    -0.14000
S1121       S  0.41726476  0.61284842  0.34742585    -0.30900
H1122       H  0.50596697  0.68832159  0.36012187     0.10900
S1123       S  0.54696199  0.63671876  0.42472415    -0.28000
H1124       H  0.45806293  0.56548887  0.41261327     0.08200
H1125       H  0.23533168  0.50053753  0.39029705     0.26600
H1126       H  0.44846373  0.65334718  0.33695297     0.21400
H1127       H  0.58910618  0.66413625  0.41451493     0.26700
H1128       H  0.46372161  0.53059069  0.36986985     0.15500
C1129       C  0.98214220  0.85347796  0.36995535    -0.11700
C1130       C  0.95261540  0.81254346  0.38033632     0.14800
C1131       C  0.97092355  0.78691831  0.38953471     0.01700
C1132       C  0.01847018  0.80310847  0.38822413    -0.16100
C1133       C  0.04787061  0.84377388  0.37744043    -0.10900
C1134       C  0.02932283  0.86957387  0.36861847     0.08400
C1135       C  0.90319021  0.79869949  0.38118663     0.09400
S1136       S  0.93543870  0.73318278  0.40272057    -0.25200
H1137       H  0.03232168  0.78303500  0.39501489     0.19700
S1138       S  0.06436955  0.92450501  0.35629047    -0.30900
H1139       H  0.96831464  0.87354372  0.36311560     0.10000
C1140       C  0.88396022  0.80850604  0.39843500     0.03200
C1141       C  0.83925174  0.80220250  0.39711509    -0.13200
C1142       C  0.81395750  0.78720125  0.37871511    -0.08900
C1143       C  0.83252092  0.77505166  0.36189736     0.06700
C1144       C  0.87689177  0.78123123  0.36326177    -0.14000
S1145       S  0.91777869  0.83259513  0.42145623    -0.30900
H1146       H  0.82519329  0.81187078  0.40994114     0.10900
S1147       S  0.80167038  0.75248040  0.33809647    -0.28000
H1148       H  0.89166903  0.77369736  0.35000132     0.08200
H1149       H  0.10071638  0.93915068  0.37046233     0.26600
H1150       H  0.88407957  0.83672864  0.43266710     0.21400
H1151       H  0.75755357  0.73022770  0.34708956     0.26700
H1152       H  0.89527616  0.71995692  0.39117647     0.15500
C1153       C  0.48556205  0.86555581  0.37181266    -0.11700
C1154       C  0.44966836  0.84537390  0.38621250     0.14800
C1155       C  0.45290991  0.81959258  0.40262408     0.01700
C1156       C  0.49206093  0.81516528  0.40448578    -0.16100
C1157       C  0.52807482  0.83470789  0.38998807    -0.10900
C1158       C  0.52480840  0.86089720  0.37358498     0.08400
C1159       C  0.40840218  0.85022470  0.38365398     0.09400
S1160       S  0.40773285  0.79042061  0.42145511    -0.25200
H1161       H  0.49334666  0.79442572  0.41698173     0.19700
S1162       S  0.56972862  0.89031501  0.35476704    -0.30900
H1163       H  0.48312220  0.88539682  0.35920350     0.10000
C1164       C  0.39996597  0.87887571  0.39665664     0.03200
C1165       C  0.35620987  0.87493947  0.39669905    -0.13200
C1166       C  0.32092738  0.84331178  0.38377032    -0.08900
C1167       C  0.33086350  0.81710406  0.36969044     0.06700
C1168       C  0.37436309  0.82090315  0.36980320    -0.14000
S1169       S  0.44429784  0.91877795  0.41384972    -0.30900
H1170       H  0.34878867  0.89511688  0.40743507     0.10900
S1171       S  0.28788714  0.77346496  0.35331350    -0.28000
H1172       H  0.38080608  0.79866195  0.35990897     0.08200
H1173       H  0.60592538  0.90432158  0.36900840     0.26600
H1174       H  0.41916887  0.93850982  0.42197216     0.21400
H1175       H  0.27810799  0.80461541  0.34331759     0.26700
H1176       H  0.37059983  0.77932250  0.40813599     0.15500
loop_ 
_geom_bond_atom_site_label_1 
_geom_bond_atom_site_label_2 
_geom_bond_distance 
_geom_bond_site_symmetry_2 
_ccdc_geom_bond_type 
O1           Ni7   1.926       .  S
O1           C22   1.272       .  A
O2          Ni25   1.906       .  S
O2           C11   1.267       .  A
O3           Ni7   1.911       .  S
O3          Ni25   1.915       .  S
O3          Ni19   1.922       .  S
O3           H26   0.966       .  S
C4           O21   1.275       .  A
C4           O13   1.278       .  A
C4         C1157   1.490       .  S
O5          Ni24   1.942       .  S
O5           C11   1.274       .  A
O6          Ni24   1.907       .  S
O6            C8   1.269       .  A
Ni7          O10   1.935       .  S
Ni7          O12   1.905       .  S
C8           O18   1.271       .  A
C8         C1118   1.478       .  S
O9          Ni25   1.907       .  S
O9           C15   1.268       .  A
O10          C15   1.274       .  A
C11        C1070   1.491       .  S
O12          C14   1.271       .  A
O13         Ni24   1.928       .  S
C14          O20   1.276       .  A
C14        C1085   1.494       .  S
C15        C1142   1.478       .  S
H16          O17   0.966       .  S
O17         Ni25   1.908       .  S
O17         Ni19   1.912       .  S
O17         Ni24   1.914       .  S
O18         Ni19   1.918       .  S
Ni19         O23   1.920       .  S
Ni19         O21   1.919       .  S
O20         Ni25   1.946       .  S
C22          O23   1.269       .  A
C22        C1046   1.486       .  S
O27         Ni33   1.929       .  S
O27          C48   1.270       .  A
O28         Ni51   1.916       .  S
O28          C37   1.271       .  A
O29         Ni33   1.912       .  S
O29         Ni51   1.919       .  S
O29         Ni45   1.914       .  S
O29          H52   0.966       .  S
C30          O47   1.275       .  A
C30          O39   1.279       .  A
C30         C998   1.481       .  S
O31         Ni50   1.943       .  S
O31          C37   1.274       .  A
O32         Ni50   1.903       .  S
O32          C34   1.268       .  A
Ni33         O36   1.923       .  S
Ni33         O38   1.901       .  S
C34          O44   1.275       .  A
C34         C941   1.488       .  S
O35         Ni51   1.927       .  S
O35          C41   1.276       .  A
O36          C41   1.274       .  A
C37        C1061   1.502       .  S
O38          C40   1.269       .  A
O39         Ni50   1.935       .  S
C40          O46   1.277       .  A
C40         C974   1.501       .  S
C41        C1013   1.491       .  S
H42          O43   0.964       .  S
O43         Ni51   1.915       .  S
O43         Ni45   1.912       .  S
O43         Ni50   1.911       .  S
O44         Ni45   1.937       .  S
Ni45         O49   1.920       .  S
Ni45         O47   1.918       .  S
O46         Ni51   1.951       .  S
C48          O49   1.269       .  A
C48         C917   1.485       .  S
O53         Ni59   1.921       .  S
O53          C74   1.268       .  A
O54         Ni77   1.900       .  S
O54          C63   1.268       .  A
O55         Ni59   1.905       .  S
O55         Ni77   1.901       .  S
O55         Ni71   1.918       .  S
O55          H78   0.966       .  S
C56          O73   1.277       .  A
C56          O65   1.280       .  A
C56         C878   1.489       .  S
O57         Ni76   1.943       .  S
O57          C63   1.276       .  A
O58         Ni76   1.909       .  S
O58          C60   1.269       .  A
Ni59         O62   1.920       .  S
Ni59         O64   1.905       .  S
C60          O70   1.270       .  A
C60        C1166   1.481       .  S
O61         Ni77   1.936       .  S
O61          C67   1.280       .  A
O62          C67   1.277       .  A
C63         C830   1.490       .  S
O64          C66   1.268       .  A
O65         Ni76   1.938       .  S
C66          O72   1.271       .  A
C66        C1133   1.479       .  S
C67         C845   1.495   1_565  S
H68          O69   0.966       .  S
O69         Ni77   1.917       .  S
O69         Ni71   1.909       .  S
O69         Ni76   1.908       .  S
O70         Ni71   1.926       .  S
Ni71         O75   1.916       .  S
Ni71         O73   1.921       .  S
O72         Ni77   1.930       .  S
C74          O75   1.267       .  A
C74         C902   1.476       .  S
O79         Ni85   1.920       .  S
O79         C100   1.270       .  A
O80        Ni103   1.894       .  S
O80          C89   1.265       .  A
O81         Ni85   1.927       .  S
O81        Ni103   1.917       .  S
O81         Ni97   1.945       .  S
O81         H104   0.966       .  S
C82          O99   1.277       .  A
C82          O91   1.279       .  A
C82         C950   1.485       .  S
O83        Ni102   1.948       .  S
O83          C89   1.275       .  A
O84        Ni102   1.911       .  S
O84          C86   1.270       .  A
Ni85         O88   1.930       .  S
Ni85         O90   1.910       .  S
C86          O96   1.272       .  A
C86         C773   1.502       .  S
O87        Ni103   1.913       .  S
O87          C93   1.264   1_545  A
O88          C93   1.268   1_545  A
C89         C821   1.489       .  S
O90          C92   1.275       .  A
O91        Ni102   1.938       .  S
C92          O98   1.282       .  A
C92         C806   1.492       .  S
C93         C965   1.478       .  S
H94          O95   0.966       .  S
O95        Ni103   1.895       .  S
O95         Ni97   1.898       .  S
O95        Ni102   1.915       .  S
O96         Ni97   1.939       .  S
Ni97        O101   1.910       .  S
Ni97         O99   1.922       .  S
O98        Ni103   1.958       .  S
C100        O101   1.268       .  A
C100        C749   1.477       .  S
O105       Ni111   1.931       .  S
O105        C126   1.272       .  A
O106       Ni129   1.911       .  S
O106        C115   1.268       .  A
O107       Ni111   1.919       .  S
O107       Ni129   1.916       .  S
O107       Ni123   1.921       .  S
O107        H130   0.967       .  S
C108        O125   1.275       .  A
C108        O117   1.276       .  A
C108       C1109   1.476       .  S
O109       Ni128   1.933       .  S
O109        C115   1.272       .  A
O110       Ni128   1.907       .  S
O110        C112   1.269       .  A
Ni111       O114   1.932       .  S
Ni111       O116   1.906       .  S
C112        O122   1.273       .  A
C112        C869   1.483       .  S
O113       Ni129   1.911       .  S
O113        C119   1.270       .  A
O114        C119   1.273       .  A
C115        C701   1.488       .  S
O116        C118   1.271       .  A
O117       Ni128   1.922       .  S
C118        O124   1.278       .  A
C118        C854   1.491       .  S
C119       C1094   1.485   1_455  S
H120        O121   0.966       .  S
O121       Ni129   1.907       .  S
O121       Ni123   1.909       .  S
O121       Ni128   1.914       .  S
O122       Ni123   1.933       .  S
Ni123       O127   1.907       .  S
Ni123       O125   1.918       .  S
O124       Ni129   1.951       .  S
C126        O127   1.267       .  A
C126        C725   1.486       .  S
O131       Ni137   1.931       .  S
O131        C152   1.273       .  A
O132       Ni155   1.904       .  S
O132        C141   1.266       .  A
O133       Ni137   1.920       .  S
O133       Ni155   1.916       .  S
O133       Ni149   1.930       .  S
O133        H156   0.967       .  S
C134        O151   1.280       .  A
C134        O143   1.279       .  A
C134        C782   1.493       .  S
O135       Ni154   1.941       .  S
O135        C141   1.275       .  A
O136       Ni154   1.909       .  S
O136        C138   1.269       .  A
Ni137       O140   1.940       .  S
Ni137       O142   1.910       .  S
C138        O148   1.274       .  A
C138        C989   1.486       .  S
O139       Ni155   1.917       .  S
O139        C145   1.271       .  A
O140        C145   1.275       .  A
C141        C710   1.498       .  S
O142        C144   1.270       .  A
O143       Ni154   1.928       .  S
C144        O150   1.277       .  A
C144       C1022   1.485       .  S
C145        C797   1.489   1_655  S
H146        O147   0.966       .  S
O147       Ni155   1.910       .  S
O147       Ni149   1.906       .  S
O147       Ni154   1.911       .  S
O148       Ni149   1.932       .  S
Ni149       O153   1.912       .  S
Ni149       O151   1.933       .  S
O150       Ni155   1.949       .  S
C152        O153   1.269       .  A
C152        C677   1.482       .  S
O157       Ni163   1.925       .  S
O157        C178   1.269       .  A
O158       Ni181   1.911       .  S
O158        C167   1.268       .  A
O159       Ni163   1.916       .  S
O159       Ni181   1.909       .  S
O159       Ni175   1.913       .  S
O159        H182   0.966       .  S
C160        O177   1.276       .  A
C160        O169   1.276       .  A
C160        C614   1.485       .  S
O161       Ni180   1.940       .  S
O161        C167   1.273       .  A
O162       Ni180   1.909       .  S
O162        C164   1.270       .  A
Ni163       O166   1.932       .  S
Ni163       O168   1.902       .  S
C164        O174   1.273       .  A
C164        C581   1.484       .  S
O165       Ni181   1.912       .  S
O165        C171   1.273       .  A
O166        C171   1.275       .  A
C167        C662   1.485       .  S
O168        C170   1.267       .  A
O169       Ni180   1.929       .  S
C170        O176   1.275       .  A
C170        C566   1.479       .  S
C171        C638   1.484       .  S
H172        O173   0.966       .  S
O173       Ni181   1.922       .  S
O173       Ni175   1.922       .  S
O173       Ni180   1.921       .  S
O174       Ni175   1.930       .  S
Ni175       O179   1.923       .  S
Ni175       O177   1.925       .  S
O176       Ni181   1.948       .  S
C178        O179   1.270       .  A
C178        C734   1.482       .  S
O183       Ni189   1.920       .  S
O183        C204   1.270       .  A
O184       Ni207   1.908       .  S
O184        C193   1.266       .  A
O185       Ni189   1.916       .  S
O185       Ni207   1.912       .  S
O185       Ni201   1.922       .  S
O185        H208   0.967       .  S
C186        O203   1.279       .  A
C186        O195   1.277       .  A
C186        C509   1.486       .  S
O187       Ni206   1.939       .  S
O187        C193   1.274       .  A
O188       Ni206   1.908       .  S
O188        C190   1.269       .  A
Ni189       O192   1.932       .  S
Ni189       O194   1.903       .  S
C190        O200   1.272       .  A
C190        C461   1.483       .  S
O191       Ni207   1.913       .  S
O191        C197   1.272       .  A
O192        C197   1.274       .  A
C193        C653   1.501       .  S
O194        C196   1.267       .  A
O195       Ni206   1.922       .  S
C196        O202   1.275       .  A
C196        C494   1.477       .  S
C197        C533   1.490       .  S
H198        O199   0.966       .  S
O199       Ni207   1.909       .  S
O199       Ni201   1.915       .  S
O199       Ni206   1.912       .  S
O200       Ni201   1.931       .  S
Ni201       O205   1.921       .  S
Ni201       O203   1.930       .  S
O202       Ni207   1.945       .  S
C204        O205   1.271       .  A
C204        C758   1.485       .  S
O209       Ni215   1.921       .  S
O209        C230   1.270       .  A
O210       Ni233   1.899       .  S
O210        C219   1.265       .  A
O211       Ni215   1.916       .  S
O211       Ni233   1.907       .  S
O211       Ni227   1.915       .  S
O211        H234   0.967       .  S
C212        O229   1.274       .  A
C212        O221   1.277       .  A
C212        C446   1.487       .  S
O213       Ni232   1.939       .  S
O213        C219   1.274       .  A
O214       Ni232   1.905       .  S
O214        C216   1.269       .  A
Ni215       O218   1.929       .  S
Ni215       O220   1.902       .  S
C216        O226   1.276       .  A
C216        C605   1.487       .  S
O217       Ni233   1.924       .  S
O217        C223   1.275       .  A
O218        C223   1.274       .  A
C219        C398   1.486       .  S
O220        C222   1.265       .  A
O221       Ni232   1.936       .  S
C222        O228   1.273       .  A
C222        C629   1.476       .  S
C223        C422   1.496   1_455  S
H224        O225   0.966       .  S
O225       Ni233   1.923       .  S
O225       Ni227   1.917       .  S
O225       Ni232   1.921       .  S
O226       Ni227   1.938       .  S
Ni227       O231   1.911       .  S
Ni227       O229   1.922       .  S
O228       Ni233   1.940       .  S
C230        O231   1.267       .  A
C230        C893   1.485       .  S
O235       Ni241   1.936       .  S
O235        C256   1.273       .  A
O236       Ni259   1.910       .  S
O236        C245   1.269       .  A
O237       Ni241   1.915       .  S
O237       Ni259   1.910       .  S
O237       Ni253   1.916       .  S
O237        H260   0.966       .  S
C238        O255   1.275       .  A
C238        O247   1.277       .  A
C238        C470   1.488       .  S
O239       Ni258   1.935       .  S
O239        C245   1.273       .  A
O240       Ni258   1.908       .  S
O240        C242   1.270       .  A
Ni241       O244   1.937       .  S
Ni241       O246   1.906       .  S
C242        O252   1.271       .  A
C242        C374   1.482       .  S
O243       Ni259   1.912       .  S
O243        C249   1.272       .  A
O244        C249   1.275       .  A
C245        C389   1.480       .  S
O246        C248   1.270       .  A
O247       Ni258   1.926       .  S
C248        O254   1.277       .  A
C248        C341   1.483       .  S
C249        C485   1.486   1_655  S
H250        O251   0.968       .  S
O251       Ni259   1.913       .  S
O251       Ni253   1.907       .  S
O251       Ni258   1.911       .  S
O252       Ni253   1.923       .  S
Ni253       O257   1.907       .  S
Ni253       O255   1.921       .  S
O254       Ni259   1.944       .  S
C256        O257   1.267       .  A
C256        C926   1.478       .  S
O261       Ni267   1.937       .  S
O261        C282   1.276       .  A
O262       Ni285   1.903       .  S
O262        C271   1.265       .  A
O263       Ni267   1.918       .  S
O263       Ni285   1.911       .  S
O263       Ni279   1.920       .  S
O263        H286   0.967       .  S
C264        O281   1.275       .  A
C264        O273   1.276       .  A
C264        C590   1.491       .  S
O265       Ni284   1.937       .  S
O265        C271   1.272       .  A
O266       Ni284   1.908       .  S
O266        C268   1.270       .  A
Ni267       O270   1.943       .  S
Ni267       O272   1.915       .  S
C268        O278   1.276       .  A
C268        C437   1.486       .  S
O269       Ni285   1.910       .  S
O269        C275   1.270       .  A
O270        C275   1.276       .  A
C271        C326   1.475       .  S
O272        C274   1.271       .  A
O273       Ni284   1.923       .  S
C274        O280   1.275       .  A
C274        C413   1.488       .  S
C275        C557   1.489   1_565  S
H276        O277   0.966       .  S
O277       Ni285   1.913       .  S
O277       Ni279   1.915       .  S
O277       Ni284   1.913       .  S
O278       Ni279   1.938       .  S
Ni279       O283   1.913       .  S
Ni279       O281   1.922       .  S
O280       Ni285   1.946       .  S
C282        O283   1.269       .  A
C282       C1037   1.495       .  S
O287       Ni293   1.930       .  S
O287        C308   1.270       .  A
O288       Ni311   1.906       .  S
O288        C297   1.267       .  A
O289       Ni293   1.906       .  S
O289       Ni311   1.910       .  S
O289       Ni305   1.909       .  S
O289        H312   0.966       .  S
C290        O307   1.276       .  A
C290        O299   1.277       .  A
C290        C365   1.480       .  S
O291       Ni310   1.934       .  S
O291        C297   1.273       .  A
O292       Ni310   1.909       .  S
O292        C294   1.271       .  A
Ni293       O296   1.924       .  S
Ni293       O298   1.906       .  S
C294        O304   1.272       .  A
C294        C518   1.492       .  S
O295       Ni311   1.917       .  S
O295        C301   1.274       .  A
O296        C301   1.278       .  A
C297        C317   1.491       .  S
O298        C300   1.268       .  A
O299       Ni310   1.919       .  S
C300        O306   1.272       .  A
C300        C542   1.477       .  S
C301        C350   1.497   1_545  S
H302        O303   0.966       .  S
O303       Ni311   1.913       .  S
O303       Ni305   1.912       .  S
O303       Ni310   1.908       .  S
O304       Ni305   1.930       .  S
Ni305       O309   1.916       .  S
Ni305       O307   1.921       .  S
O306       Ni311   1.937       .  S
C308        O309   1.269       .  A
C308        C686   1.482       .  S
C313        C314   1.401       .  A
C313        C318   1.403       .  A
C313        H323   1.084       .  S
C314        C319   1.481   1_546  S
C314        C315   1.410       .  A
C315        C316   1.399       .  A
C315        S320   1.805       .  S
C316        C317   1.408       .  A
C316        H321   1.084       .  S
C317        C318   1.420       .  A
C318        S322   1.802       .  S
C319        C324   1.409       .  A
C319        C328   1.402   1_565  A
S320        H336   1.405   1_546  S
S322        H333   1.407       .  S
C324        C325   1.405       .  A
C324        S329   1.806   1_554  S
C325        C326   1.404       .  A
C325        H330   1.083       .  S
C326        C327   1.413       .  A
C327        C328   1.401   1_565  A
C327        S331   1.803   1_565  S
C328        H332   1.084       .  S
S329        H334   1.406       .  S
S331        H335   1.406   1_545  S
C337        C338   1.403       .  A
C337        C342   1.402       .  A
C337        H347   1.084       .  S
C338        C343   1.481       .  S
C338        C339   1.411       .  A
C339        C340   1.399       .  A
C339        S344   1.803       .  S
C340        C341   1.405       .  A
C340        H345   1.084       .  S
C341        C342   1.417       .  A
C342        S346   1.804       .  S
C343        C348   1.404       .  A
C343        C352   1.403       .  A
S344        H360   1.404       .  S
S346        H357   1.407       .  S
C348        C349   1.396       .  A
C348        S353   1.809       .  S
C349        C350   1.411       .  A
C349        H354   1.081       .  S
C350        C351   1.422       .  A
C351        C352   1.406       .  A
C351        S355   1.802       .  S
C352        H356   1.084       .  S
S353        H358   1.406       .  S
S355        H359   1.407       .  S
C361        C362   1.402       .  A
C361        C366   1.403       .  A
C361        H371   1.084       .  S
C362        C367   1.477       .  S
C362        C363   1.411       .  A
C363        C364   1.395       .  A
C363        S368   1.807       .  S
C364        C365   1.405       .  A
C364        H369   1.084       .  S
C365        C366   1.416       .  A
C366        S370   1.802       .  S
C367        C372   1.408       .  A
C367        C376   1.398       .  A
S368        H384   1.405       .  S
S370        H381   1.407       .  S
C372        C373   1.403       .  A
C372        S377   1.806       .  S
C373        C374   1.406       .  A
C373        H378   1.083       .  S
C374        C375   1.417       .  A
C375        C376   1.398       .  A
C375        S379   1.799       .  S
C376        H380   1.084       .  S
S377        H382   1.407       .  S
S379        H383   1.406       .  S
C385        C386   1.401   1_455  A
C385        C390   1.400   1_455  A
C385        H395   1.084       .  S
C386        C391   1.481   1_656  S
C386        C387   1.412       .  A
C387        C388   1.402       .  A
C387        S392   1.804   1_556  S
C388        C389   1.404       .  A
C388        H393   1.084       .  S
C389        C390   1.414       .  A
C390        S394   1.800   1_655  S
C391        C396   1.407       .  A
C391        C400   1.401       .  A
S392        H408   1.405       .  S
S394        H405   1.407   1_455  S
C396        C397   1.402       .  A
C396        S401   1.807       .  S
C397        C398   1.407       .  A
C397        H402   1.083       .  S
C398        C399   1.418       .  A
C399        C400   1.402       .  A
C399        S403   1.803       .  S
C400        H404   1.084       .  S
S401        H406   1.407       .  S
S403        H407   1.407       .  S
C409        C410   1.404       .  A
C409        C414   1.402       .  A
C409        H419   1.084       .  S
C410        C415   1.492       .  S
C410        C411   1.415       .  A
C411        C412   1.403       .  A
C411        S416   1.803       .  S
C412        C413   1.405       .  A
C412        H417   1.084       .  S
C413        C414   1.417       .  A
C414        S418   1.800       .  S
C415        C420   1.413       .  A
C415        C424   1.400       .  A
S416        H432   1.407       .  S
S418        H429   1.407       .  S
C420        C421   1.411       .  A
C420        S425   1.806       .  S
C421        C422   1.410       .  A
C421        H426   1.082       .  S
C422        C423   1.421       .  A
C423        C424   1.397       .  A
C423        S427   1.804       .  S
C424        H428   1.084       .  S
S425        H430   1.407       .  S
S427        H431   1.407       .  S
C433        C434   1.404       .  A
C433        C438   1.404       .  A
C433        H443   1.084       .  S
C434        C439   1.490       .  S
C434        C435   1.414       .  A
C435        C436   1.403       .  A
C435        S440   1.804       .  S
C436        C437   1.406       .  A
C436        H441   1.084       .  S
C437        C438   1.415       .  A
C438        S442   1.804       .  S
C439        C444   1.411       .  A
C439        C448   1.402       .  A
S440        H456   1.405       .  S
S442        H453   1.407       .  S
C444        C445   1.410       .  A
C444        S449   1.805       .  S
C445        C446   1.406       .  A
C445        H450   1.083       .  S
C446        C447   1.416       .  A
C447        C448   1.401       .  A
C447        S451   1.802       .  S
C448        H452   1.084       .  S
S449        H454   1.407       .  S
S451        H455   1.403       .  S
C457        C458   1.402       .  A
C457        C462   1.402       .  A
C457        H467   1.084       .  S
C458        C463   1.483       .  S
C458        C459   1.413       .  A
C459        C460   1.401       .  A
C459        S464   1.804       .  S
C460        C461   1.405       .  A
C460        H465   1.084       .  S
C461        C462   1.416       .  A
C462        S466   1.800       .  S
C463        C468   1.408       .  A
C463        C472   1.402       .  A
S464        H480   1.405       .  S
S466        H477   1.406       .  S
C468        C469   1.401       .  A
C468        S473   1.808       .  S
C469        C470   1.407       .  A
C469        H474   1.082       .  S
C470        C471   1.418       .  A
C471        C472   1.404       .  A
C471        S475   1.803       .  S
C472        H476   1.084       .  S
S473        H478   1.407       .  S
S475        H479   1.407       .  S
C481        C482   1.402       .  A
C481        C486   1.399       .  A
C481        H491   1.084       .  S
C482        C487   1.486       .  S
C482        C483   1.413       .  A
C483        C484   1.404       .  A
C483        S488   1.804       .  S
C484        C485   1.406       .  A
C484        H489   1.083       .  S
C485        C486   1.417       .  A
C486        S490   1.803       .  S
C487        C492   1.411       .  A
C487        C496   1.402       .  A
S488        H504   1.406       .  S
S490        H501   1.407       .  S
C492        C493   1.407   1_565  A
C492        S497   1.805       .  S
C493        C494   1.404       .  A
C493        H498   1.083       .  S
C494        C495   1.413       .  A
C495        C496   1.399   1_545  A
C495        S499   1.802       .  S
C496        H500   1.084       .  S
S497        H502   1.407       .  S
S499        H503   1.403       .  S
C505        C506   1.405       .  A
C505        C510   1.407       .  A
C505        H515   1.084       .  S
C506        C511   1.484       .  S
C506        C507   1.412       .  A
C507        C508   1.396       .  A
C507        S512   1.806       .  S
C508        C509   1.405       .  A
C508        H513   1.084       .  S
C509        C510   1.416       .  A
C510        S514   1.802       .  S
C511        C516   1.409       .  A
C511        C520   1.401       .  A
S512        H528   1.405       .  S
S514        H525   1.407       .  S
C516        C517   1.404       .  A
C516        S521   1.806       .  S
C517        C518   1.408       .  A
C517        H522   1.083       .  S
C518        C519   1.420       .  A
C519        C520   1.402       .  A
C519        S523   1.799       .  S
C520        H524   1.084       .  S
S521        H526   1.407       .  S
S523        H527   1.408       .  S
C529        C530   1.401       .  A
C529        C534   1.399       .  A
C529        H539   1.084       .  S
C530        C535   1.485       .  S
C530        C531   1.412       .  A
C531        C532   1.403       .  A
C531        S536   1.802       .  S
C532        C533   1.408       .  A
C532        H537   1.083       .  S
C533        C534   1.419       .  A
C534        S538   1.803       .  S
C535        C540   1.410       .  A
C535        C544   1.403       .  A
S536        H552   1.406       .  S
S538        H549   1.407       .  S
C540        C541   1.405   1_455  A
C540        S545   1.805       .  S
C541        C542   1.404       .  A
C541        H546   1.083       .  S
C542        C543   1.414       .  A
C543        C544   1.402   1_655  A
C543        S547   1.803       .  S
C544        H548   1.084       .  S
S545        H550   1.407       .  S
S547        H551   1.404       .  S
C553        C554   1.402       .  A
C553        C558   1.399       .  A
C553        H563   1.084       .  S
C554        C559   1.487       .  S
C554        C555   1.412       .  A
C555        C556   1.405       .  A
C555        S560   1.803       .  S
C556        C557   1.408       .  A
C556        H561   1.083       .  S
C557        C558   1.417       .  A
C558        S562   1.803       .  S
C559        C564   1.410       .  A
C559        C568   1.404       .  A
S560        H576   1.406       .  S
S562        H573   1.407       .  S
C564        C565   1.405   1_655  A
C564        S569   1.806       .  S
C565        C566   1.404       .  A
C565        H570   1.083       .  S
C566        C567   1.412       .  A
C567        C568   1.405   1_455  A
C567        S571   1.807       .  S
C568        H572   1.083       .  S
S569        H574   1.407       .  S
S571        H575   1.406       .  S
C577        C578   1.399       .  A
C577        C582   1.398       .  A
C577        H587   1.084       .  S
C578        C583   1.482       .  S
C578        C579   1.413       .  A
C579        C580   1.403       .  A
C579        S584   1.804       .  S
C580        C581   1.406       .  A
C580        H585   1.084       .  S
C581        C582   1.418       .  A
C582        S586   1.799       .  S
C583        C588   1.407       .  A
C583        C592   1.402       .  A
S584        H600   1.405       .  S
S586        H597   1.398       .  S
C588        C589   1.400       .  A
C588        S593   1.809       .  S
C589        C590   1.409       .  A
C589        H594   1.082       .  S
C590        C591   1.419       .  A
C591        C592   1.405       .  A
C591        S595   1.802       .  S
C592        H596   1.084       .  S
S593        H598   1.406       .  S
S595        H599   1.407       .  S
C601        C602   1.404       .  A
C601        C606   1.404       .  A
C601        H611   1.084       .  S
C602        C607   1.486       .  S
C602        C603   1.412       .  A
C603        C604   1.401       .  A
C603        S608   1.803       .  S
C604        C605   1.405       .  A
C604        H609   1.084       .  S
C605        C606   1.416       .  A
C606        S610   1.804       .  S
C607        C612   1.409       .  A
C607        C616   1.401       .  A
S608        H624   1.404       .  S
S610        H621   1.407       .  S
C612        C613   1.409       .  A
C612        S617   1.804       .  S
C613        C614   1.407       .  A
C613        H618   1.083       .  S
C614        C615   1.417       .  A
C615        C616   1.400       .  A
C615        S619   1.804       .  S
C616        H620   1.084       .  S
S617        H622   1.407       .  S
S619        H623   1.403       .  S
C625        C626   1.404       .  A
C625        C630   1.399   1_545  A
C625        H635   1.084       .  S
C626        C631   1.487       .  S
C626        C627   1.415       .  A
C627        C628   1.403   1_545  A
C627        S632   1.804       .  S
C628        C629   1.404       .  A
C628        H633   1.084       .  S
C629        C630   1.412       .  A
C630        S634   1.802       .  S
C631        C636   1.411       .  A
C631        C640   1.403       .  A
S632        H648   1.406       .  S
S634        H645   1.405       .  S
C636        C637   1.405       .  A
C636        S641   1.807       .  S
C637        C638   1.405       .  A
C637        H642   1.082       .  S
C638        C639   1.416       .  A
C639        C640   1.399       .  A
C639        S643   1.804       .  S
C640        H644   1.084       .  S
S641        H646   1.407       .  S
S643        H647   1.407       .  S
C649        C650   1.402       .  A
C649        C654   1.409       .  A
C649        H659   1.083       .  S
C650        C655   1.488   1_556  S
C650        C651   1.410       .  A
C651        C652   1.400       .  A
C651        S656   1.805       .  S
C652        C653   1.410       .  A
C652        H657   1.083       .  S
C653        C654   1.423       .  A
C654        S658   1.809       .  S
C655        C660   1.411       .  A
C655        C664   1.403       .  A
S656        H672   1.405   1_556  S
S658        H669   1.406       .  S
C660        C661   1.407       .  A
C660        S665   1.806   1_554  S
C661        C662   1.405       .  A
C661        H666   1.083       .  S
C662        C663   1.415       .  A
C663        C664   1.403       .  A
C663        S667   1.801       .  S
C664        H668   1.084       .  S
S665        H670   1.406       .  S
S667        H671   1.406       .  S
C673        C674   1.402       .  A
C673        C678   1.399       .  A
C673        H683   1.084       .  S
C674        C679   1.484       .  S
C674        C675   1.413       .  A
C675        C676   1.404       .  A
C675        S680   1.803       .  S
C676        C677   1.406       .  A
C676        H681   1.084       .  S
C677        C678   1.415       .  A
C678        S682   1.804       .  S
C679        C684   1.410       .  A
C679        C688   1.401       .  A
S680        H696   1.406       .  S
S682        H693   1.407       .  S
C684        C685   1.407       .  A
C684        S689   1.805       .  S
C685        C686   1.406       .  A
C685        H690   1.082       .  S
C686        C687   1.415       .  A
C687        C688   1.399       .  A
C687        S691   1.804       .  S
C688        H692   1.084       .  S
S689        H694   1.407       .  S
S691        H695   1.407       .  S
C697        C698   1.402       .  A
C697        C702   1.400       .  A
C697        H707   1.084   1_455  S
C698        C703   1.486       .  S
C698        C699   1.412       .  A
C699        C700   1.401       .  A
C699        S704   1.804       .  S
C700        C701   1.408       .  A
C700        H705   1.084       .  S
C701        C702   1.416       .  A
C702        S706   1.797       .  S
C703        C708   1.409   1_455  A
C703        C712   1.400   1_455  A
S704        H720   1.406       .  S
S706        H717   1.407       .  S
C708        C709   1.403       .  A
C708        S713   1.808       .  S
C709        C710   1.410       .  A
C709        H714   1.082       .  S
C710        C711   1.422       .  A
C711        C712   1.405       .  A
C711        S715   1.806       .  S
C712        H716   1.083   1_655  S
S713        H718   1.407       .  S
S715        H719   1.407       .  S
C721        C722   1.403       .  A
C721        C726   1.403       .  A
C721        H731   1.084       .  S
C722        C727   1.484       .  S
C722        C723   1.413       .  A
C723        C724   1.398       .  A
C723        S728   1.805       .  S
C724        C725   1.405       .  A
C724        H729   1.084       .  S
C725        C726   1.418       .  A
C726        S730   1.802       .  S
C727        C732   1.410       .  A
C727        C736   1.402       .  A
S728        H744   1.405       .  S
S730        H741   1.407       .  S
C732        C733   1.403       .  A
C732        S737   1.808       .  S
C733        C734   1.405       .  A
C733        H738   1.083       .  S
C734        C735   1.417       .  A
C735        C736   1.403       .  A
C735        S739   1.801       .  S
C736        H740   1.084       .  S
S737        H742   1.406       .  S
S739        H743   1.405       .  S
C745        C746   1.402       .  A
C745        C750   1.401       .  A
C745        H755   1.083       .  S
C746        C751   1.486       .  S
C746        C747   1.415       .  A
C747        C748   1.403       .  A
C747        S752   1.803       .  S
C748        C749   1.403       .  A
C748        H753   1.084       .  S
C749        C750   1.411       .  A
C750        S754   1.807       .  S
C751        C756   1.410       .  A
C751        C760   1.407       .  A
S752        H768   1.406       .  S
S754        H765   1.407       .  S
C756        C757   1.398       .  A
C756        S761   1.810       .  S
C757        C758   1.407       .  A
C757        H762   1.083       .  S
C758        C759   1.414       .  A
C759        C760   1.406       .  A
C759        S763   1.800       .  S
C760        H764   1.084       .  S
S761        H766   1.407       .  S
S763        H767   1.406       .  S
C769        C770   1.401       .  A
C769        C774   1.405       .  A
C769        H779   1.084       .  S
C770        C775   1.491       .  S
C770        C771   1.412       .  A
C771        C772   1.402       .  A
C771        S776   1.804       .  S
C772        C773   1.410       .  A
C772        H777   1.083       .  S
C773        C774   1.424       .  A
C774        S778   1.801       .  S
C775        C780   1.410       .  A
C775        C784   1.405       .  A
S776        H792   1.406       .  S
S778        H789   1.408       .  S
C780        C781   1.404       .  A
C780        S785   1.808       .  S
C781        C782   1.408       .  A
C781        H786   1.083       .  S
C782        C783   1.417       .  A
C783        C784   1.407       .  A
C783        S787   1.802       .  S
C784        H788   1.084       .  S
S785        H790   1.407       .  S
S787        H791   1.407       .  S
C793        C794   1.406       .  A
C793        C798   1.403       .  A
C793        H803   1.084       .  S
C794        C799   1.497       .  S
C794        C795   1.418       .  A
C795        C796   1.406       .  A
C795        S800   1.804       .  S
C796        C797   1.405       .  A
C796        H801   1.083       .  S
C797        C798   1.414       .  A
C798        S802   1.803       .  S
C799        C804   1.415       .  A
C799        C808   1.403       .  A
S800        H816   1.405       .  S
S802        H813   1.407       .  S
C804        C805   1.412       .  A
C804        S809   1.805       .  S
C805        C806   1.407       .  A
C805        H810   1.083       .  S
C806        C807   1.417       .  A
C807        C808   1.400       .  A
C807        S811   1.802       .  S
C808        H812   1.084       .  S
S809        H814   1.407       .  S
S811        H815   1.405       .  S
C817        C818   1.402       .  A
C817        C822   1.401       .  A
C817        H827   1.084       .  S
C818        C823   1.482   1_545  S
C818        C819   1.410   1_545  A
C819        C820   1.399   1_565  A
C819        S824   1.804       .  S
C820        C821   1.409       .  A
C820        H825   1.083       .  S
C821        C822   1.417       .  A
C822        S826   1.802       .  S
C823        C828   1.407       .  A
C823        C832   1.401       .  A
S824        H840   1.406       .  S
S826        H837   1.407       .  S
C828        C829   1.403       .  A
C828        S833   1.807   1_565  S
C829        C830   1.409       .  A
C829        H834   1.082       .  S
C830        C831   1.418       .  A
C831        C832   1.404       .  A
C831        S835   1.809       .  S
C832        H836   1.083       .  S
S833        H838   1.407       .  S
S835        H839   1.407       .  S
C841        C842   1.406       .  A
C841        C846   1.410       .  A
C841        H851   1.084       .  S
C842        C847   1.488       .  S
C842        C843   1.410       .  A
C843        C844   1.395       .  A
C843        S848   1.806       .  S
C844        C845   1.407       .  A
C844        H849   1.083       .  S
C845        C846   1.418       .  A
C846        S850   1.801       .  S
C847        C852   1.410       .  A
C847        C856   1.402       .  A
S848        H864   1.405       .  S
S850        H861   1.407       .  S
C852        C853   1.408       .  A
C852        S857   1.806       .  S
C853        C854   1.408       .  A
C853        H858   1.083       .  S
C854        C855   1.417       .  A
C855        C856   1.401       .  A
C855        S859   1.804       .  S
C856        H860   1.084       .  S
S857        H862   1.407       .  S
S859        H863   1.408       .  S
C865        C866   1.404       .  A
C865        C870   1.404       .  A
C865        H875   1.084       .  S
C866        C871   1.486       .  S
C866        C867   1.412       .  A
C867        C868   1.401       .  A
C867        S872   1.803       .  S
C868        C869   1.405       .  A
C868        H873   1.084       .  S
C869        C870   1.414       .  A
C870        S874   1.803       .  S
C871        C876   1.409       .  A
C871        C880   1.400       .  A
S872        H888   1.405       .  S
S874        H885   1.407       .  S
C876        C877   1.410       .  A
C876        S881   1.805       .  S
C877        C878   1.409       .  A
C877        H882   1.083       .  S
C878        C879   1.418       .  A
C879        C880   1.399       .  A
C879        S883   1.804       .  S
C880        H884   1.084       .  S
S881        H886   1.407       .  S
S883        H887   1.404       .  S
C889        C890   1.402       .  A
C889        C894   1.404       .  A
C889        H899   1.084       .  S
C890        C895   1.477       .  S
C890        C891   1.408       .  A
C891        C892   1.393       .  A
C891        S896   1.803       .  S
C892        C893   1.407       .  A
C892        H897   1.084       .  S
C893        C894   1.419       .  A
C894        S898   1.801       .  S
C895        C900   1.408       .  A
C895        C904   1.400       .  A
S896        H912   1.405       .  S
S898        H909   1.407       .  S
C900        C901   1.401       .  A
C900        S905   1.807       .  S
C901        C902   1.404       .  A
C901        H906   1.083       .  S
C902        C903   1.416       .  A
C903        C904   1.400       .  A
C903        S907   1.801       .  S
C904        H908   1.084       .  S
S905        H910   1.407       .  S
S907        H911   1.406       .  S
C913        C914   1.402       .  A
C913        C918   1.399       .  A
C913        H923   1.084       .  S
C914        C919   1.488       .  S
C914        C915   1.414       .  A
C915        C916   1.406       .  A
C915        S920   1.803       .  S
C916        C917   1.406       .  A
C916        H921   1.084       .  S
C917        C918   1.415       .  A
C918        S922   1.804       .  S
C919        C924   1.411       .  A
C919        C928   1.404       .  A
S920        H936   1.406       .  S
S922        H933   1.407       .  S
C924        C925   1.407       .  A
C924        S929   1.806       .  S
C925        C926   1.404       .  A
C925        H930   1.083       .  S
C926        C927   1.412       .  A
C927        C928   1.401       .  A
C927        S931   1.804       .  S
C928        H932   1.084       .  S
S929        H934   1.407       .  S
S931        H935   1.407       .  S
C937        C938   1.402       .  A
C937        C942   1.402       .  A
C937        H947   1.084       .  S
C938        C943   1.485       .  S
C938        C939   1.412       .  A
C939        C940   1.402       .  A
C939        S944   1.804       .  S
C940        C941   1.407       .  A
C940        H945   1.084       .  S
C941        C942   1.418       .  A
C942        S946   1.804       .  S
C943        C948   1.410       .  A
C943        C952   1.400       .  A
S944        H960   1.405       .  S
S946        H957   1.407       .  S
C948        C949   1.409       .  A
C948        S953   1.804       .  S
C949        C950   1.406       .  A
C949        H954   1.083       .  S
C950        C951   1.417       .  A
C951        C952   1.399       .  A
C951        S955   1.803       .  S
C952        H956   1.084       .  S
S953        H958   1.407       .  S
S955        H959   1.403       .  S
C961        C962   1.402       .  A
C961        C966   1.401       .  A
C961        H971   1.084       .  S
C962        C967   1.487       .  S
C962        C963   1.415       .  A
C963        C964   1.404       .  A
C963        S968   1.804       .  S
C964        C965   1.403       .  A
C964        H969   1.084       .  S
C965        C966   1.415       .  A
C966        S970   1.803   1_565  S
C967        C972   1.407       .  A
C967        C976   1.404       .  A
S968        H984   1.405       .  S
S970        H981   1.399       .  S
C972        C973   1.400   1_455  A
C972        S977   1.808       .  S
C973        C974   1.411       .  A
C973        H978   1.082       .  S
C974        C975   1.420       .  A
C975        C976   1.408   1_655  A
C975        S979   1.799       .  S
C976        H980   1.084       .  S
S977        H982   1.407       .  S
S979        H983   1.406       .  S
C985        C986   1.403       .  A
C985        C990   1.402       .  A
C985        H995   1.084       .  S
C986        C991   1.486       .  S
C986        C987   1.412       .  A
C987        C988   1.403       .  A
C987        S992   1.804       .  S
C988        C989   1.407       .  A
C988        H993   1.084       .  S
C989        C990   1.415       .  A
C990        S994   1.803       .  S
C991        C996   1.410       .  A
C991       C1000   1.402       .  A
S992       H1008   1.406       .  S
S994       H1005   1.407       .  S
C996        C997   1.407       .  A
C996       S1001   1.805       .  S
C997        C998   1.405       .  A
C997       H1002   1.083       .  S
C998        C999   1.414       .  A
C999       C1000   1.400       .  A
C999       S1003   1.804       .  S
C1000      H1004   1.084       .  S
S1001      H1006   1.407       .  S
S1003      H1007   1.405       .  S
C1009      C1010   1.403       .  A
C1009      C1014   1.398       .  A
C1009      H1019   1.083       .  S
C1010      C1015   1.497       .  S
C1010      C1011   1.418       .  A
C1011      C1012   1.407       .  A
C1011      S1016   1.803       .  S
C1012      C1013   1.406       .  A
C1012      H1017   1.084       .  S
C1013      C1014   1.417       .  A
C1014      S1018   1.804       .  S
C1015      C1020   1.416       .  A
C1015      C1024   1.404       .  A
S1016      H1032   1.407       .  S
S1018      H1029   1.408       .  S
C1020      C1021   1.409   1_565  A
C1020      S1025   1.807       .  S
C1021      C1022   1.404       .  A
C1021      H1026   1.083       .  S
C1022      C1023   1.413       .  A
C1023      C1024   1.400   1_545  A
C1023      S1027   1.798       .  S
C1024      H1028   1.084       .  S
S1025      H1030   1.407       .  S
S1027      H1031   1.402       .  S
C1033      C1034   1.403       .  A
C1033      C1038   1.408       .  A
C1033      H1043   1.084       .  S
C1034      C1039   1.488       .  S
C1034      C1035   1.412       .  A
C1035      C1036   1.399       .  A
C1035      S1040   1.804       .  S
C1036      C1037   1.406       .  A
C1036      H1041   1.084       .  S
C1037      C1038   1.420       .  A
C1038      S1042   1.799       .  S
C1039      C1044   1.409       .  A
C1039      C1048   1.405       .  A
S1040      H1056   1.405       .  S
S1042      H1053   1.407       .  S
C1044      C1045   1.401       .  A
C1044      S1049   1.807       .  S
C1045      C1046   1.404       .  A
C1045      H1050   1.083       .  S
C1046      C1047   1.416       .  A
C1047      C1048   1.408       .  A
C1047      S1051   1.799       .  S
C1048      H1052   1.083       .  S
S1049      H1054   1.407       .  S
S1051      H1055   1.406       .  S
C1057      C1058   1.402       .  A
C1057      C1062   1.404       .  A
C1057      H1067   1.084       .  S
C1058      C1063   1.492       .  S
C1058      C1059   1.413       .  A
C1059      C1060   1.404       .  A
C1059      S1064   1.804       .  S
C1060      C1061   1.409       .  A
C1060      H1065   1.083       .  S
C1061      C1062   1.423       .  A
C1062      S1066   1.802       .  S
C1063      C1068   1.411       .  A
C1063      C1072   1.403       .  A
S1064      H1080   1.406       .  S
S1066      H1077   1.408       .  S
C1068      C1069   1.407       .  A
C1068      S1073   1.806       .  S
C1069      C1070   1.407       .  A
C1069      H1074   1.083       .  S
C1070      C1071   1.415       .  A
C1071      C1072   1.406       .  A
C1071      S1075   1.808       .  S
C1072      H1076   1.083       .  S
S1073      H1078   1.407       .  S
S1075      H1079   1.407       .  S
C1081      C1082   1.401       .  A
C1081      C1086   1.403   1_545  A
C1081      H1091   1.084       .  S
C1082      C1087   1.481       .  S
C1082      C1083   1.409       .  A
C1083      C1084   1.396   1_545  A
C1083      S1088   1.805       .  S
C1084      C1085   1.409       .  A
C1084      H1089   1.083       .  S
C1085      C1086   1.421       .  A
C1086      S1090   1.801       .  S
C1087      C1092   1.409       .  A
C1087      C1096   1.399       .  A
S1088      H1104   1.406       .  S
S1090      H1101   1.406       .  S
C1092      C1093   1.407       .  A
C1092      S1097   1.805       .  S
C1093      C1094   1.407       .  A
C1093      H1098   1.082       .  S
C1094      C1095   1.418       .  A
C1095      C1096   1.396       .  A
C1095      S1099   1.803   1_655  S
C1096      H1100   1.084       .  S
S1097      H1102   1.407       .  S
S1099      H1103   1.402       .  S
C1105      C1106   1.400       .  A
C1105      C1110   1.395       .  A
C1105      H1115   1.084       .  S
C1106      C1111   1.474       .  S
C1106      C1107   1.413       .  A
C1107      C1108   1.403       .  A
C1107      S1112   1.807       .  S
C1108      C1109   1.405       .  A
C1108      H1113   1.084       .  S
C1109      C1110   1.414       .  A
C1110      S1114   1.804       .  S
C1111      C1116   1.406       .  A
C1111      C1120   1.401       .  A
S1112      H1128   1.402       .  S
S1114      H1125   1.405       .  S
C1116      C1117   1.400       .  A
C1116      S1121   1.806       .  S
C1117      C1118   1.406       .  A
C1117      H1122   1.082       .  S
C1118      C1119   1.415       .  A
C1119      C1120   1.399       .  A
C1119      S1123   1.803       .  S
C1120      H1124   1.084       .  S
S1121      H1126   1.407       .  S
S1123      H1127   1.407       .  S
C1129      C1130   1.400       .  A
C1129      C1134   1.395   1_655  A
C1129      H1139   1.084       .  S
C1130      C1135   1.481       .  S
C1130      C1131   1.413       .  A
C1131      C1132   1.405   1_655  A
C1131      S1136   1.803       .  S
C1132      C1133   1.406       .  A
C1132      H1137   1.084       .  S
C1133      C1134   1.414       .  A
C1134      S1138   1.802       .  S
C1135      C1140   1.410       .  A
C1135      C1144   1.401       .  A
S1136      H1152   1.405       .  S
S1138      H1149   1.406       .  S
C1140      C1141   1.407       .  A
C1140      S1145   1.806       .  S
C1141      C1142   1.406       .  A
C1141      H1146   1.083       .  S
C1142      C1143   1.413       .  A
C1143      C1144   1.397       .  A
C1143      S1147   1.804       .  S
C1144      H1148   1.084       .  S
S1145      H1150   1.407       .  S
S1147      H1151   1.407       .  S
C1153      C1154   1.402       .  A
C1153      C1158   1.404       .  A
C1153      H1163   1.084       .  S
C1154      C1159   1.480       .  S
C1154      C1155   1.411       .  A
C1155      C1156   1.397       .  A
C1155      S1160   1.806       .  S
C1156      C1157   1.407       .  A
C1156      H1161   1.084       .  S
C1157      C1158   1.419       .  A
C1158      S1162   1.802       .  S
C1159      C1164   1.409       .  A
C1159      C1168   1.399       .  A
S1160      H1176   1.405       .  S
S1162      H1173   1.407       .  S
C1164      C1165   1.405       .  A
C1164      S1169   1.805       .  S
C1165      C1166   1.406       .  A
C1165      H1170   1.083       .  S
C1166      C1167   1.418       .  A
C1167      C1168   1.398       .  A
C1167      S1171   1.800       .  S
C1168      H1172   1.084       .  S
S1169      H1174   1.407       .  S
S1171      H1175   1.400       .  S
