geometry optimzed in LAMMPS
_audit_creation_date              2020-12-01 
_audit_creation_method            'lammps2cif' 
_symmetry_space_group_name_H-M    'P1' 
_symmetry_Int_Tables_number       1 
_symmetry_cell_setting            triclinic 
loop_ 
_symmetry_equiv_pos_as_xyz 
  x,y,z 
_cell_length_a                    48.0897163 
_cell_length_b                    48.109668004364586 
_cell_length_c                    34.08452294553638 
_cell_angle_alpha                 89.95411481006269 
_cell_angle_beta                  89.86492876083932 
_cell_angle_gamma                 89.77848147931196 
loop_ 
_atom_site_label 
_atom_site_type_symbol 
_atom_site_fract_x 
_atom_site_fract_y 
_atom_site_fract_z 
_atom_site_charge 
O1          O  0.60703107  0.11845537  0.63547521    -0.79500
O2          O  0.52026175  0.10619575  0.75919025    -0.64200
O3          O  0.58797444  0.09558903  0.70393604    -1.10800
C4          C  0.53346018  0.03469606  0.62897786     1.07400
O5          O  0.51447174  0.06088241  0.76557248    -0.77400
O6          O  0.55291869  0.02784405  0.73181821    -0.65000
Ni7        Ni  0.61010190  0.12664969  0.69022851     1.34900
C8          C  0.57725216  0.02553384  0.71774142     0.86100
O9          O  0.57096512  0.12713868  0.76855112    -0.78000
O10         O  0.61372703  0.13618728  0.74454952    -0.88200
C11         C  0.50939502  0.08567547  0.77671681     0.85700
O12         O  0.58204528  0.15461859  0.68450874    -0.66400
O13         O  0.52291861  0.02893560  0.66246046    -0.85700
C14         C  0.55575509  0.15383430  0.68675698     0.86500
C15         C  0.59509477  0.13790005  0.77120865     1.08100
H16         H  0.52545486  0.08792600  0.67809902     0.39900
O17         O  0.53885305  0.07791286  0.69383990    -1.08400
O18         O  0.58578067  0.04000627  0.68875958    -0.65000
Ni19       Ni  0.57192336  0.07353917  0.66320402     1.26300
O20         O  0.54256810  0.13293348  0.69962748    -0.65300
O21         O  0.55330410  0.05197052  0.62408201    -0.77600
C22         C  0.61629685  0.09587069  0.62130942     0.85900
O23         O  0.60565449  0.07295325  0.63239399    -0.64700
Ni24       Ni  0.52037970  0.04608542  0.71329723     1.27400
Ni25       Ni  0.55441375  0.10220827  0.73156815     1.26100
H26         H  0.59946490  0.08382156  0.72027164     0.40400
O27         O  0.46895921  0.90913178  0.26897960    -0.79500
O28         O  0.37787193  0.89271066  0.40512676    -0.64200
O29         O  0.44122790  0.88942096  0.33664908    -1.10800
C30         C  0.38599499  0.82429020  0.26832559     1.07400
O31         O  0.37705275  0.84705006  0.40763656    -0.77400
O32         O  0.41212478  0.81600303  0.36429349    -0.65000
Ni33       Ni  0.45717225  0.92375611  0.31897429     1.34900
C34         C  0.43487708  0.81639585  0.34545300     0.86100
O35         O  0.42937356  0.91392174  0.40878408    -0.78000
O36         O  0.45022635  0.94310808  0.36767316    -0.88200
C37         C  0.36820955  0.87044887  0.41973477     0.85700
O38         O  0.42292376  0.93625785  0.29708801    -0.66400
O39         O  0.37627110  0.81817813  0.30212719    -0.85700
C40         C  0.40004587  0.93926466  0.31537263     0.86500
C41         C  0.44387234  0.93538952  0.40224198     1.08100
H42         H  0.37680521  0.87885457  0.32200228     0.39900
O43         O  0.39195151  0.86887072  0.33423029    -1.08400
O44         O  0.43986550  0.83446286  0.31930287    -0.65000
Ni45       Ni  0.42220361  0.86713894  0.29840478     1.26300
O46         O  0.39410078  0.92546321  0.34645826    -0.65300
O47         O  0.40222893  0.84471183  0.26218135    -0.77600
C48         C  0.46841203  0.88573548  0.25175314     0.85900
O49         O  0.45238761  0.86641102  0.26257037    -0.64700
Ni50       Ni  0.37762035  0.83432973  0.35396930     1.27400
Ni51       Ni  0.40986717  0.89215287  0.37139563     1.26100
H52         H  0.45566567  0.87869112  0.34936089     0.40400
O53         O  0.61040172  0.85215912  0.87825826    -0.79500
O54         O  0.62804255  0.77540656  0.02221537    -0.64200
O55         O  0.63196306  0.83606220  0.95066294    -1.10800
C56         C  0.69100769  0.77520509  0.87884112     1.07400
O57         O  0.67287124  0.76573882  0.01940221    -0.77400
O58         O  0.70518179  0.79677917  0.97349919    -0.65000
Ni59       Ni  0.59839340  0.85277235  0.93212181     1.34900
C60         C  0.70514866  0.82189923  0.96212159     0.86100
O61         O  0.60858718  0.82690768  0.02368708    -0.78000
O62         O  0.58354344  0.85511870  0.98457015    -0.88200
C63         C  0.64947682  0.76398709  0.03652837     0.85700
O64         O  0.57803792  0.81969830  0.92215458    -0.66400
O65         O  0.69399182  0.76195988  0.91091318    -0.85700
C66         C  0.57771295  0.79658974  0.93993157     0.86500
C67         C  0.58954781  0.84489449  0.01811103     1.08100
H68         H  0.63801194  0.77307875  0.93460208     0.39900
O69         O  0.65001549  0.78617152  0.94759162    -1.08400
O70         O  0.68738009  0.83191826  0.93828738    -0.65000
Ni71       Ni  0.65453916  0.81742447  0.91286507     1.26300
O72         O  0.59544224  0.79024033  0.96601092    -0.65300
O73         O  0.67683955  0.79752872  0.87546886    -0.77600
C74         C  0.63388455  0.86029469  0.86575987     0.85900
O75         O  0.65610304  0.84969089  0.87946495    -0.64700
Ni76       Ni  0.68192054  0.76555417  0.96420903     1.27400
Ni77       Ni  0.62920676  0.80586355  0.98647739     1.26100
H78         H  0.64263278  0.85057240  0.96306354     0.40400
O79         O  0.81945288  0.71124036  0.52066093    -0.79500
O80         O  0.83289406  0.61782956  0.65387504    -0.64200
O81         O  0.83897080  0.68228467  0.58782174    -1.10800
C82         C  0.89940976  0.62409079  0.51406787     1.07400
O83         O  0.87843268  0.61237068  0.65358114    -0.77400
O84         O  0.91187692  0.64514052  0.61084830    -0.65000
Ni85       Ni  0.80495901  0.69936189  0.57074870     1.34900
C86         C  0.91240752  0.66927415  0.59590381     0.86100
O87         O  0.81509711  0.67098642  0.66015267    -0.78000
O88         O  0.78577661  0.69161225  0.61928061    -0.88200
C89         C  0.85461271  0.60601435  0.66698263     0.85700
O90         O  0.79227940  0.66590197  0.54747823    -0.66400
O91         O  0.90441730  0.61177922  0.54650874    -0.85700
C92         C  0.78875291  0.64278363  0.56468759     0.86500
C93         C  0.79449196  0.68690644  0.65385465     1.08100
H94         H  0.84530011  0.61823773  0.56922582     0.39900
O95         O  0.85661281  0.63189965  0.58237161    -1.08400
O96         O  0.89407750  0.67756537  0.57156745    -0.65000
Ni97       Ni  0.86028129  0.66321816  0.54855633     1.26300
O98         O  0.80093601  0.63671056  0.59691894    -0.65300
O99         O  0.88132042  0.64326770  0.51059404    -0.77600
C100        C  0.84256897  0.71003069  0.50257461     0.85900
O101        O  0.86225391  0.69444901  0.51413583    -0.64700
Ni102      Ni  0.88982716  0.61327415  0.59930953     1.27400
Ni103      Ni  0.83504712  0.65040842  0.62137632     1.26100
H104        H  0.85013134  0.69610627  0.60088281     0.40400
O105        O  0.02081976  0.05965387  0.77197728    -0.79500
O106        O  0.11168460  0.07172679  0.90774775    -0.64200
O107        O  0.04836089  0.07768452  0.84017243    -1.10800
C108        C  0.10878920  0.13806717  0.76894722     1.07400
O109        O  0.11376347  0.11735595  0.90834348    -0.77400
O110        O  0.08628384  0.15289556  0.86085282    -0.65000
Ni111      Ni  0.03160140  0.04416493  0.82173317     1.34900
C112        C  0.06160775  0.15259366  0.84779171     0.86100
O113        O  0.05919145  0.05293691  0.91160005    -0.78000
O114        O  0.03797908  0.02433107  0.87014353    -0.88200
C115        C  0.12129343  0.09399143  0.92226532     0.85700
O116        O  0.06542365  0.03109242  0.79936387    -0.66400
O117        O  0.12224610  0.14123730  0.80094106    -0.85700
C118        C  0.08797724  0.02670980  0.81761627     0.86500
C119        C  0.04367456  0.03225017  0.90480247     1.08100
H120        H  0.11214362  0.08418547  0.82238072     0.39900
O121        O  0.09849824  0.09548281  0.83586772    -1.08400
O122        O  0.05254113  0.13283236  0.82681457    -0.65000
Ni123      Ni  0.06742588  0.10004793  0.80223317     1.26300
O124        O  0.09405343  0.03932793  0.84952060    -0.65300
O125        O  0.08755043  0.12243011  0.76571588    -0.77600
C126        C  0.02063674  0.08365808  0.75642538     0.85900
O127        O  0.03605347  0.10311623  0.76860427    -0.64700
Ni128      Ni  0.11719018  0.12810208  0.85401231     1.27400
Ni129      Ni  0.07980102  0.07346248  0.87404175     1.26100
H130        H  0.03426476  0.08850644  0.85354802     0.40400
O131        O  0.87456438  0.85297213  0.12457413    -0.79500
O132        O  0.95056610  0.86459701  0.27020466    -0.64200
O133        O  0.89088638  0.87336740  0.19829154    -1.10800
C134        C  0.95086874  0.93326988  0.12964253     1.07400
O135        O  0.97024748  0.90603790  0.26470588    -0.77400
O136        O  0.93015414  0.93903726  0.23324297    -0.65000
Ni137      Ni  0.87358474  0.84032448  0.17841934     1.34900
C138        C  0.90670449  0.94318430  0.21710293     0.86100
O139        O  0.89831861  0.84843221  0.27073213    -0.78000
O140        O  0.87041669  0.82437275  0.23052838    -0.88200
C141        C  0.96750053  0.88279166  0.28189811     0.85700
O142        O  0.90629706  0.81900662  0.16774207    -0.66400
O143        O  0.95954691  0.93929936  0.16374148    -0.85700
C144        C  0.92903646  0.81750875  0.18629333     0.86500
C145        C  0.88016438  0.82973648  0.26456805     1.08100
H146        H  0.95490989  0.87660502  0.18291462     0.39900
O147        O  0.94188338  0.88886252  0.19591039    -1.08400
O148        O  0.89846481  0.92952941  0.18696078    -0.65000
Ni149      Ni  0.91092407  0.89506900  0.16117498     1.26300
O150        O  0.93531093  0.83451224  0.21318977    -0.65300
O151        O  0.93233859  0.91510407  0.12356240    -0.77600
C152        C  0.86840985  0.87704059  0.11178498     0.85900
O153        O  0.87910464  0.89855979  0.12722412    -0.64700
Ni154      Ni  0.96229618  0.92069479  0.21337802     1.27400
Ni155      Ni  0.92068643  0.86857761  0.23427541     1.26100
H156        H  0.87664436  0.88464247  0.21056546     0.40400
O157        O  0.16904176  0.76068548  0.51676867    -0.79500
O158        O  0.15687207  0.84765061  0.65612682    -0.64200
O159        O  0.14940350  0.78465164  0.58825168    -1.10800
C160        C  0.08808976  0.84396343  0.51867294     1.07400
O161        O  0.11125882  0.85313831  0.65832039    -0.77400
O162        O  0.07730546  0.82026693  0.61573354    -0.65000
Ni163      Ni  0.18204823  0.76575394  0.56958038     1.34900
C164        C  0.07666383  0.79681959  0.59873311     0.86100
O165        O  0.17582991  0.79539324  0.66015960    -0.78000
O166        O  0.19912204  0.76662361  0.62034524    -0.88200
C167        C  0.13546318  0.85914316  0.67072015     0.85700
O168        O  0.20041132  0.79854327  0.55276262    -0.66400
O169        O  0.08289436  0.85507398  0.55200230    -0.85700
C170        C  0.20233575  0.82225510  0.56866021     0.86500
C171        C  0.19399396  0.77660246  0.65414582     1.08100
H172        H  0.14284767  0.84915276  0.57263607     0.39900
O173        O  0.13184715  0.83505488  0.58550513    -1.08400
O174        O  0.09442357  0.78988504  0.57289114    -0.65000
Ni175      Ni  0.12792780  0.80469762  0.55038293     1.26300
O176        O  0.18752631  0.82992897  0.59776038    -0.65300
O177        O  0.10688582  0.82566008  0.51384755    -0.77600
C178        C  0.14522902  0.76068098  0.50087833     0.85900
O179        O  0.12507182  0.77417492  0.51530395    -0.64700
Ni180      Ni  0.09861227  0.85284650  0.60437355     1.27400
Ni181      Ni  0.15421937  0.81579017  0.62290495     1.26100
H182        H  0.13789621  0.77106692  0.60136647     0.40400
O183        O  0.38225832  0.61500726  0.87725097    -0.79500
O184        O  0.36935475  0.69797085  0.01061990    -0.64200
O185        O  0.36051870  0.63316839  0.94877020    -1.10800
C186        C  0.29663065  0.68827738  0.87940394     1.07400
O187        O  0.32418615  0.70660299  0.01525019    -0.77400
O188        O  0.29363787  0.66610797  0.98258037    -0.65000
Ni189      Ni  0.39269812  0.61296090  0.93170703     1.34900
C190        C  0.29065462  0.64308819  0.96510316     0.86100
O191        O  0.39083105  0.64775043  0.01587575    -0.78000
O192        O  0.40572383  0.60916492  0.98496016    -0.88200
C193        C  0.34894618  0.70926448  0.02782967     0.85700
O194        O  0.41760665  0.64324693  0.92281615    -0.66400
O195        O  0.29017963  0.69678521  0.91373203    -0.85700
C196        C  0.41635526  0.66896053  0.93086106     0.86500
C197        C  0.40520072  0.62549662  0.01446414     1.08100
H198        H  0.35160205  0.69700771  0.92866917     0.39900
O199        O  0.34167385  0.68280605  0.94320937    -1.08400
O200        O  0.30439026  0.63640723  0.93449528    -0.65000
Ni201      Ni  0.33788753  0.65104693  0.91009169     1.26300
O202        O  0.39659877  0.67954490  0.95051876    -0.65300
O203        O  0.31616151  0.67093539  0.87280260    -0.77600
C204        C  0.35876756  0.60787020  0.86373260     0.85900
O205        O  0.33663830  0.61875030  0.87721797    -0.64700
Ni206      Ni  0.30891883  0.69985820  0.96362027     1.27400
Ni207      Ni  0.36590690  0.66544176  0.97994754     1.26100
H208        H  0.34923867  0.62038238  0.96370699     0.40400
O209        O  0.10922525  0.35754779  0.38290976    -0.79500
O210        O  0.12691811  0.27528043  0.52287616    -0.64200
O211        O  0.13116826  0.33649225  0.45310461    -1.10800
C212        C  0.19076745  0.28305884  0.37678836     1.07400
O213        O  0.16308773  0.24942362  0.50494506    -0.77400
O214        O  0.19345683  0.29492127  0.48462445    -0.65000
Ni215      Ni  0.09718050  0.35352212  0.43673509     1.34900
C216        C  0.19873998  0.31850341  0.46960127     0.86100
O217        O  0.11106961  0.32746762  0.52716441    -0.78000
O218        O  0.08231139  0.35248057  0.48947061    -0.88200
C219        C  0.14303602  0.25477779  0.52806501     0.85700
O220        O  0.07822187  0.32006507  0.42233784    -0.66400
O221        O  0.19848564  0.27420800  0.41014130    -0.85700
C222        C  0.07631419  0.29764404  0.44175855     0.86500
C223        C  0.09056551  0.34400488  0.52305603     1.08100
H224        H  0.13268628  0.27340549  0.43233116     0.39900
O225        O  0.14561231  0.28526535  0.44488268    -1.08400
O226        O  0.18627930  0.32777338  0.43894792    -0.65000
Ni227      Ni  0.15114813  0.31790964  0.41327757     1.26300
O228        O  0.09260498  0.29223460  0.47009241    -0.65300
O229        O  0.16956764  0.29831683  0.37252333    -0.77600
C230        C  0.13334159  0.36400110  0.37053566     0.85900
O231        O  0.15479656  0.35150456  0.38332717    -0.64700
Ni232      Ni  0.17843737  0.26421654  0.45720275     1.27400
Ni233      Ni  0.12836269  0.30567113  0.48738031     1.26100
H234        H  0.14268582  0.35057531  0.46515339     0.40400
O235        O  0.32061724  0.21350694  0.02437525    -0.79500
O236        O  0.32993167  0.12229134  0.16261251    -0.64200
O237        O  0.33823732  0.18380123  0.09128862    -1.10800
C238        C  0.39567641  0.12255378  0.02037210     1.07400
O239        O  0.37499679  0.11224117  0.16066706    -0.77400
O240        O  0.40626027  0.14799821  0.12033992    -0.65000
Ni241      Ni  0.30486734  0.20176810  0.07363502     1.34900
C242        C  0.40798444  0.17041324  0.10103921     0.86100
O243        O  0.31417061  0.17646873  0.16431499    -0.78000
O244        O  0.28473708  0.19478671  0.12146783    -0.88200
C245        C  0.35096066  0.10904792  0.17562613     0.85700
O246        O  0.29211650  0.16792794  0.05117787    -0.66400
O247        O  0.40328036  0.11418024  0.05430508    -0.85700
C248        C  0.28648550  0.14626834  0.07101645     0.86500
C249        C  0.29354464  0.19199461  0.15632116     1.08100
H250        H  0.34157857  0.11812784  0.07829946     0.39900
O251        O  0.35334027  0.13229198  0.08946734    -1.08400
O252        O  0.39210260  0.17561710  0.07217880    -0.65000
Ni253      Ni  0.35719386  0.16182807  0.05261291     1.26300
O254        O  0.29817492  0.14084521  0.10391544    -0.65300
O255        O  0.37536977  0.13900099  0.01526198    -0.77600
C256        C  0.34316851  0.20972787  0.00564702     0.85900
O257        O  0.36058725  0.19129802  0.01564830    -0.64700
Ni258      Ni  0.38715650  0.11474478  0.10677309     1.27400
Ni259      Ni  0.33314672  0.15345083  0.12728476     1.26100
H260        H  0.35041259  0.19748665  0.10273144     0.40400
O261        O  0.53285779  0.56113353  0.25978415    -0.79500
O262        O  0.61462045  0.56794412  0.40254255    -0.64200
O263        O  0.55230627  0.57911454  0.33450228    -1.10800
C264        C  0.61389798  0.64147993  0.27006053     1.07400
O265        O  0.61863205  0.61346223  0.40810510    -0.77400
O266        O  0.58912941  0.65103650  0.36506376    -0.65000
Ni267      Ni  0.53140145  0.54876140  0.31403602     1.34900
C268        C  0.56561951  0.65239459  0.34826477     0.86100
O269        O  0.56162508  0.54881661  0.40428942    -0.78000
O270        O  0.52674111  0.53398067  0.36614776    -0.88200
C271        C  0.62596017  0.58901393  0.41815663     0.85700
O272        O  0.56187005  0.52438666  0.30383659    -0.66400
O273        O  0.62535454  0.64432198  0.30366105    -0.85700
C274        C  0.58648028  0.52241493  0.31692500     0.86500
C275        C  0.53918736  0.53508798  0.39917460     1.08100
H276        H  0.61660852  0.58508625  0.31992286     0.39900
O277        O  0.60258762  0.59585175  0.33356051    -1.08400
O278        O  0.55781147  0.63461190  0.32316363    -0.65000
Ni279      Ni  0.57253196  0.60184885  0.29843278     1.26300
O280        O  0.59674850  0.53934416  0.34170244    -0.65300
O281        O  0.59402773  0.62454295  0.26383686    -0.77600
C282        C  0.52972731  0.58584509  0.24712181     0.85900
O283        O  0.54176086  0.60602959  0.26369380    -0.64700
Ni284      Ni  0.62086297  0.62775254  0.35510610     1.27400
Ni285      Ni  0.58287519  0.57200784  0.36907733     1.26100
H286        H  0.53919624  0.59062697  0.34864919     0.40400
O287        O  0.37294113  0.35013119  0.62932316    -0.79500
O288        O  0.45425991  0.36638035  0.76825247    -0.64200
O289        O  0.39242135  0.37254252  0.69979502    -1.10800
C290        C  0.44705553  0.43412232  0.62711087     1.07400
O291        O  0.47415719  0.40749031  0.75905094    -0.77400
O292        O  0.42809038  0.43532306  0.73429804    -0.65000
Ni293      Ni  0.37352708  0.33934532  0.68380744     1.34900
C294        C  0.40528198  0.43990932  0.71675484     0.86100
O295        O  0.40290335  0.34908922  0.77252190    -0.78000
O296        O  0.37210830  0.32515066  0.73690556    -0.88200
C297        C  0.47161085  0.38482280  0.77788243     0.85700
O298        O  0.40524892  0.31707050  0.67262424    -0.66400
O299        O  0.45295752  0.44232271  0.66159515    -0.85700
C300        C  0.42923939  0.31680791  0.68774670     0.86500
C301        C  0.38423189  0.33059726  0.76930133     1.08100
H302        H  0.45672880  0.37709482  0.68089438     0.39900
O303        O  0.44321431  0.38890483  0.69371321    -1.08400
O304        O  0.39865219  0.42775537  0.68476073    -0.65000
Ni305      Ni  0.41137779  0.39324819  0.66036251     1.26300
O306        O  0.43759116  0.33486976  0.71208342    -0.65300
O307        O  0.43196187  0.41292015  0.62123898    -0.77600
C308        C  0.36665798  0.37393251  0.61585904     0.85900
O309        O  0.37870423  0.39566036  0.62822467    -0.64700
Ni310      Ni  0.46123252  0.42252417  0.70976053     1.27400
Ni311      Ni  0.42341760  0.36894961  0.73385279     1.26100
H312        H  0.37875651  0.38427676  0.71251306     0.40400
O313        O  0.87585027  0.11409328  0.38429107    -0.79500
O314        O  0.86256154  0.19601307  0.52137592    -0.64200
O315        O  0.85475173  0.13327055  0.45573542    -1.10800
C316        C  0.79206698  0.18907349  0.38365952     1.07400
O317        O  0.81968655  0.21254701  0.51817511    -0.77400
O318        O  0.78769733  0.17268962  0.48675063    -0.65000
Ni319      Ni  0.88766242  0.11429245  0.43845265     1.34900
C320        C  0.78512116  0.14813153  0.47372992     0.86100
O321        O  0.87953176  0.14447189  0.52702166    -0.78000
O322        O  0.90196534  0.11217973  0.49150451    -0.88200
C323        C  0.84336140  0.21130186  0.53451847     0.85700
O324        O  0.91105676  0.14557319  0.42722508    -0.66400
O325        O  0.78764106  0.20080754  0.41649661    -0.85700
C326        C  0.91161683  0.16965232  0.44236964     0.86500
C327        C  0.89707285  0.12473604  0.52388930     1.08100
H328        H  0.84978258  0.19643306  0.43497253     0.39900
O329        O  0.83790143  0.18373765  0.44919807    -1.08400
O330        O  0.79907909  0.13865031  0.44464381    -0.65000
Ni331      Ni  0.83239192  0.15123173  0.41715174     1.26300
O332        O  0.89280226  0.17806559  0.46567390    -0.65300
O333        O  0.81046806  0.17030988  0.37876854    -0.77600
C334        C  0.85200357  0.10697851  0.37169675     0.85900
O335        O  0.83004961  0.11798752  0.38587281    -0.64700
Ni336      Ni  0.80581359  0.20439195  0.46629764     1.27400
Ni337      Ni  0.85898888  0.16460465  0.48865579     1.26100
H338        H  0.84362653  0.11977675  0.46965834     0.40400
O339        O  0.66227967  0.25942593  0.01712958    -0.79500
O340        O  0.65545054  0.34629380  0.15327012    -0.64200
O341        O  0.64509317  0.28184276  0.09014077    -1.10800
C342        C  0.58326629  0.34124994  0.02056655     1.07400
O343        O  0.60984417  0.35109646  0.15823961    -0.77400
O344        O  0.57235017  0.32174834  0.11636164    -0.65000
Ni345      Ni  0.67594565  0.26105193  0.07027463     1.34900
C346        C  0.57148446  0.29698599  0.10375775     0.86100
O347        O  0.67455064  0.29411343  0.15848511    -0.78000
O348        O  0.69200275  0.25936113  0.12182946    -0.88200
C349        C  0.63432011  0.35695338  0.16977261     0.85700
O350        O  0.69837556  0.29185452  0.05515686    -0.66400
O351        O  0.58081752  0.35516272  0.05240867    -0.85700
C352        C  0.70012049  0.31669247  0.06729688     0.86500
C353        C  0.68938691  0.27230626  0.15431304     1.08100
H354        H  0.63890420  0.34506754  0.06968500     0.39900
O355        O  0.62805325  0.33204696  0.08491365    -1.08400
O356        O  0.58966947  0.28705036  0.08068951    -0.65000
Ni357      Ni  0.62180240  0.30028497  0.05328172     1.26300
O358        O  0.68412339  0.32684753  0.09350463    -0.65300
O359        O  0.59873253  0.31982136  0.01717196    -0.77600
C360        C  0.63739656  0.25572294  0.00592684     0.85900
O361        O  0.61727388  0.26796654  0.02243673    -0.64700
Ni362      Ni  0.59652592  0.35207677  0.10461796     1.27400
Ni363      Ni  0.65167873  0.31378944  0.12187788     1.26100
H364        H  0.63408262  0.26904780  0.10546032     0.40400
O365        O  0.11653569  0.61896659  0.12526428    -0.79500
O366        O  0.03895917  0.60484340  0.26916368    -0.64200
O367        O  0.09935327  0.59901050  0.19795560    -1.10800
C368        C  0.04520205  0.53606261  0.12831475     1.07400
O369        O  0.01412279  0.56740782  0.25465817    -0.77400
O370        O  0.06083703  0.53760104  0.23610131    -0.65000
Ni371      Ni  0.11583804  0.63239563  0.17854393     1.34900
C372        C  0.08429424  0.53200856  0.22061769     0.86100
O373        O  0.09092874  0.62213765  0.27046395    -0.78000
O374        O  0.11744850  0.64817821  0.23055336    -0.88200
C375        C  0.01880868  0.58862058  0.27569019     0.85700
O376        O  0.08251170  0.65285436  0.16692184    -0.66400
O377        O  0.03942144  0.52870224  0.16309937    -0.85700
C378        C  0.06019048  0.65450140  0.18672025     0.86500
C379        C  0.10823749  0.64174264  0.26456973     1.08100
H380        H  0.03584941  0.59547949  0.17937300     0.39900
O381        O  0.04859946  0.58312363  0.19268749    -1.08400
O382        O  0.09241354  0.54319228  0.18831035    -0.65000
Ni383      Ni  0.08074864  0.57705749  0.16023629     1.26300
O384        O  0.05457091  0.63722423  0.21368815    -0.65300
O385        O  0.06075931  0.55666135  0.12143194    -0.77600
C386        C  0.12471263  0.59495400  0.11453316     0.85900
O387        O  0.11381528  0.57334371  0.12929015    -0.64700
Ni388      Ni  0.02907929  0.55032646  0.20835943     1.27400
Ni389      Ni  0.06906900  0.60255555  0.23302227     1.26100
H390        H  0.11378865  0.58816778  0.21048069     0.40400
O391        O  0.97536995  0.41048272  0.77908449    -0.79500
O392        O  0.87920243  0.39655340  0.90987555    -0.64200
O393        O  0.94326619  0.39134272  0.84226076    -1.10800
C394        C  0.88546072  0.33184059  0.76911697     1.07400
O395        O  0.87639135  0.35081274  0.90991374    -0.77400
O396        O  0.91216020  0.32073624  0.86696367    -0.65000
Ni397      Ni  0.96085693  0.42546882  0.82725033     1.34900
C398        C  0.93432294  0.31992538  0.84681668     0.86100
O399        O  0.93253673  0.41467537  0.91539319    -0.78000
O400        O  0.95079450  0.44513281  0.87441497    -0.88200
C401        C  0.86839971  0.37425932  0.92293243     0.85700
O402        O  0.92769041  0.43728269  0.80207199    -0.66400
O403        O  0.87709576  0.32444840  0.80315103    -0.85700
C404        C  0.90454826  0.44145625  0.81929346     0.86500
C405        C  0.94736670  0.43592802  0.90894822     1.08100
H406        H  0.87798356  0.38457446  0.82680841     0.39900
O407        O  0.89291687  0.37377339  0.83820953    -1.08400
O408        O  0.93902921  0.33739521  0.81963814    -0.65000
Ni409      Ni  0.92287248  0.37203474  0.80192590     1.26300
O410        O  0.89807010  0.42939280  0.85168780    -0.65300
O411        O  0.90138923  0.35260391  0.76376585    -0.77600
C412        C  0.97143969  0.38911781  0.75801565     0.85900
O413        O  0.95248818  0.37164809  0.76511483    -0.64700
Ni414      Ni  0.87783796  0.33923743  0.85583841     1.27400
Ni415      Ni  0.91172953  0.39504837  0.87666212     1.26100
H416        H  0.95691498  0.37932568  0.85423737     0.40400
C417        C  0.98262597  0.44907225  0.00669306     0.14000
C418        C  0.99281138  0.47619018  0.00156701     0.01000
C419        C  0.98709501  0.49038405  0.96651141     0.16000
C420        C  0.97156719  0.47768446  0.93694279     0.25400
C421        C  0.96127385  0.45045981  0.94190427    -0.40900
C422        C  0.96686684  0.43638024  0.97732096     0.32400
C423        C  0.00735084  0.49050746  0.03401780     0.01100
F424        F  0.99594786  0.51690222  0.96130152    -0.13300
F425        F  0.95785454  0.40998514  0.98319404    -0.13800
C426        C  0.03411892  0.50176331  0.02895775     0.16000
C427        C  0.04671244  0.51675890  0.05940437     0.25400
C428        C  0.03299013  0.51996032  0.09567274    -0.40900
C429        C  0.00639219  0.50828211  0.10060991     0.32400
C430        C  0.99365244  0.49401372  0.07003383     0.14100
F431        F  0.04808964  0.49803710  0.99468438    -0.13200
F432        F  0.99203893  0.51172395  0.13463555    -0.13800
F433        F  0.07234705  0.52778389  0.05359907    -0.16000
F434        F  0.96736267  0.48444197  0.07516606    -0.14600
F435        F  0.98825778  0.43472552  0.04009303    -0.14600
F436        F  0.96640620  0.49226119  0.90359721    -0.16000
C437        C  0.76694870  0.35754348  0.05785482     0.14000
C438        C  0.77027476  0.35867514  0.01683829     0.01000
C439        C  0.74867084  0.34902415  0.99278112     0.16000
C440        C  0.72514640  0.33648429  0.00932233     0.25400
C441        C  0.72243202  0.33408684  0.05028387    -0.40900
C442        C  0.74299160  0.34567901  0.07445356     0.32400
C443        C  0.79741075  0.36626708  0.99881255     0.01100
F444        F  0.75115073  0.35026107  0.95312645    -0.13300
F445        F  0.74074448  0.34378588  0.11408068    -0.13800
C446        C  0.81994391  0.34775955  0.00190153     0.16000
C447        C  0.84408325  0.35185286  0.97966052     0.25400
C448        C  0.84618359  0.37443916  0.95343150    -0.40900
C449        C  0.82431407  0.39399472  0.95223441     0.32400
C450        C  0.80002362  0.38979466  0.97454616     0.14100
F451        F  0.81771585  0.32444198  0.02416148    -0.13200
F452        F  0.82541855  0.41584431  0.92706813    -0.13800
F453        F  0.86494481  0.33283362  0.98230561    -0.16000
F454        F  0.77844320  0.40787152  0.97090092    -0.14600
F455        F  0.78733300  0.36704904  0.08176578    -0.14600
F456        F  0.70529846  0.32600002  0.98529276    -0.16000
C457        C  0.85552713  0.27265337  0.70854423     0.14000
C458        C  0.86535377  0.27906890  0.67092311     0.01000
C459        C  0.88037283  0.30362679  0.66493719     0.16000
C460        C  0.88578123  0.32152370  0.69630610     0.25400
C461        C  0.87707569  0.31464749  0.73472494    -0.40900
C462        C  0.86139194  0.29011764  0.74017884     0.32400
C463        C  0.85948657  0.26051735  0.63753880     0.01100
F464        F  0.88954815  0.31039305  0.62845067    -0.13300
F465        F  0.85184018  0.28266909  0.77617733    -0.13800
C466        C  0.83228005  0.25789266  0.62338078     0.16000
C467        C  0.82691535  0.24190553  0.59002715     0.25400
C468        C  0.84877298  0.22800375  0.57036525    -0.40900
C469        C  0.87602332  0.23023240  0.58549343     0.32400
C470        C  0.88124203  0.24632825  0.61872458     0.14100
F471        F  0.81097007  0.27143245  0.64137872    -0.13200
F472        F  0.89787811  0.21734793  0.56782944    -0.13800
F473        F  0.80030426  0.24022152  0.57705823    -0.16000
F474        F  0.90763396  0.24812943  0.63256228    -0.14600
F475        F  0.84071631  0.24908371  0.71481342    -0.14600
F476        F  0.89934734  0.34561328  0.68876324    -0.16000
C477        C  0.72296300  0.22053140  0.22329360     0.14000
C478        C  0.73215563  0.23764293  0.25381698     0.01000
C479        C  0.72675724  0.26637231  0.25222394     0.16000
C480        C  0.71256543  0.27782377  0.22011671     0.25400
C481        C  0.70394770  0.26069332  0.18892992    -0.40900
C482        C  0.70902107  0.23185775  0.19121159     0.32400
C483        C  0.74731792  0.22507358  0.28709467     0.01100
F484        F  0.73577508  0.28336834  0.28128393    -0.13300
F485        F  0.69978197  0.21436484  0.16288565    -0.13800
C486        C  0.77273157  0.21131176  0.28059325     0.16000
C487        C  0.78667331  0.19829766  0.31156219     0.25400
C488        C  0.77548765  0.19897720  0.34974424    -0.40900
C489        C  0.74936388  0.21181546  0.35577978     0.32400
C490        C  0.73561160  0.22504898  0.32480939     0.14100
F491        F  0.78432141  0.21098509  0.24423259    -0.13200
F492        F  0.73692098  0.21126336  0.39159019    -0.13800
F493        F  0.81155646  0.18588441  0.30433119    -0.16000
F494        F  0.71062372  0.23744766  0.33147395    -0.14600
F495        F  0.72716951  0.19262529  0.22491329    -0.14600
F496        F  0.70780610  0.30566067  0.21917511    -0.16000
C497        C  0.56377423  0.35226199  0.91403901     0.14000
C498        C  0.53727664  0.36431154  0.91716600     0.01000
C499        C  0.52601018  0.36953576  0.95454261     0.16000
C500        C  0.54104556  0.36257603  0.98841603     0.25400
C501        C  0.56756719  0.35017350  0.98529103    -0.40900
C502        C  0.57870433  0.34511169  0.94766187     0.32400
C503        C  0.52087537  0.36985173  0.88130561     0.01100
F504        F  0.50000153  0.38033933  0.95815044    -0.13300
F505        F  0.60417418  0.33320609  0.94330295    -0.13800
C506        C  0.51172797  0.34757949  0.85817843     0.16000
C507        C  0.49591370  0.35243898  0.82448790     0.25400
C508        C  0.48929167  0.37979682  0.81286137    -0.40900
C509        C  0.49906808  0.40215171  0.83570597     0.32400
C510        C  0.51459049  0.39717148  0.86976271     0.14100
F511        F  0.51792416  0.32101104  0.86853774    -0.13200
F512        F  0.49300562  0.42882034  0.82572563    -0.13800
F513        F  0.48742240  0.33031249  0.80296257    -0.16000
F514        F  0.52376179  0.41901920  0.89128162    -0.14600
F515        F  0.57515261  0.34726243  0.87822724    -0.14600
F516        F  0.52909134  0.36667411  0.02409111    -0.16000
C517        C  0.61638666  0.40036169  0.25818097     0.14000
C518        C  0.63489551  0.42265498  0.25360894     0.01000
C519        C  0.65681114  0.42027143  0.22637602     0.16000
C520        C  0.65831764  0.39730226  0.20116142     0.25400
C521        C  0.63767553  0.37667593  0.20262875    -0.40900
C522        C  0.61776379  0.37754433  0.23287837     0.32400
C523        C  0.62755471  0.45002729  0.27082336     0.01100
F524        F  0.67550343  0.44115568  0.22230679    -0.13300
F525        F  0.59866148  0.35698385  0.23655633    -0.13800
C526        C  0.62611210  0.45406194  0.31166026     0.16000
C527        C  0.61455484  0.47865904  0.32708535     0.25400
C528        C  0.60352655  0.49906676  0.30178573    -0.40900
C529        C  0.60545815  0.49506041  0.26104947     0.32400
C530        C  0.61777544  0.47106499  0.24574128     0.14100
F531        F  0.63470718  0.43366724  0.33643885    -0.13200
F532        F  0.59421811  0.51393403  0.23598305    -0.13800
F533        F  0.61216128  0.48153415  0.36656763    -0.16000
F534        F  0.61821605  0.46739399  0.20623655    -0.14600
F535        F  0.59530159  0.40190086  0.28465073    -0.14600
F536        F  0.67832571  0.39660781  0.17298572    -0.16000
C537        C  0.47705400  0.45012539  0.52630425     0.14000
C538        C  0.48608097  0.47777258  0.53065449     0.01000
C539        C  0.48095140  0.49139674  0.56650580     0.16000
C540        C  0.46726514  0.47765071  0.59727553     0.25400
C541        C  0.45861952  0.44980741  0.59310159    -0.40900
C542        C  0.46347342  0.43634572  0.55703630     0.32400
C543        C  0.50006060  0.49243257  0.49736646     0.01100
F544        F  0.48880965  0.51822285  0.57162609    -0.13300
F545        F  0.45614499  0.40936708  0.55190212    -0.13800
C546        C  0.48744390  0.49315910  0.46025907     0.16000
C547        C  0.50036931  0.50635843  0.42855959     0.25400
C548        C  0.52626275  0.51986935  0.43306361    -0.40900
C549        C  0.53899143  0.51899952  0.47038545     0.32400
C550        C  0.52606388  0.50539472  0.50205488     0.14100
F551        F  0.46211672  0.48142727  0.45470196    -0.13200
F552        F  0.56410857  0.53104022  0.47638565    -0.13800
F553        F  0.48712172  0.50589734  0.39343489    -0.16000
F554        F  0.53931367  0.50438642  0.53716064    -0.14600
F555        F  0.48215004  0.43604394  0.49252580    -0.14600
F556        F  0.46226037  0.49175765  0.63107958    -0.16000
C557        C  0.47255910  0.20346801  0.14566929     0.14000
C558        C  0.47470985  0.22794456  0.12334158     0.01000
C559        C  0.45337225  0.23470252  0.09691190     0.16000
C560        C  0.43104525  0.21674060  0.09134608     0.25400
C561        C  0.42981829  0.19106033  0.11132374    -0.40900
C562        C  0.45042426  0.18510185  0.13965972     0.32400
C563        C  0.50016149  0.24524720  0.12461453     0.01100
F564        F  0.45483350  0.25809693  0.07469630    -0.13300
F565        F  0.44971837  0.16122744  0.16090729    -0.13800
C566        C  0.52618105  0.23323432  0.11614656     0.16000
C567        C  0.54967329  0.24991533  0.11139631     0.25400
C568        C  0.54761135  0.27907522  0.11462566    -0.40900
C569        C  0.52167242  0.29097703  0.12438895     0.32400
C570        C  0.49828446  0.27419061  0.12970351     0.14100
F571        F  0.52856869  0.20544174  0.10995603    -0.13200
F572        F  0.51840523  0.31899328  0.12621657    -0.13800
F573        F  0.57424750  0.23748933  0.10222134    -0.16000
F574        F  0.47348896  0.28635084  0.13835303    -0.14600
F575        F  0.49223209  0.19709203  0.17278965    -0.14600
F576        F  0.41103265  0.22438402  0.06540958    -0.16000
C577        C  0.37790124  0.23896819  0.91369961     0.14000
C578        C  0.36014873  0.26121511  0.90424997     0.01000
C579        C  0.33685636  0.26646721  0.92798035     0.16000
C580        C  0.33152659  0.25004422  0.96100336     0.25400
C581        C  0.34917285  0.22751219  0.97071707    -0.40900
C582        C  0.37245437  0.22218103  0.94640520     0.32400
C583        C  0.36603598  0.27920417  0.86991746     0.01100
F584        F  0.31941064  0.28789042  0.91947465    -0.13300
F585        F  0.38988573  0.20053689  0.95379306    -0.13800
C586        C  0.34687419  0.28131362  0.83899708     0.16000
C587        C  0.35237946  0.29841560  0.80665552     0.25400
C588        C  0.37720155  0.31387897  0.80468191    -0.40900
C589        C  0.39619741  0.31191719  0.83614387     0.32400
C590        C  0.39069399  0.29466181  0.86822832     0.14100
F591        F  0.32301904  0.26631849  0.83978455    -0.13200
F592        F  0.42055937  0.32610977  0.83559811    -0.13800
F593        F  0.33330790  0.29985774  0.77741037    -0.16000
F594        F  0.40945603  0.29317353  0.89788045    -0.14600
F595        F  0.40026248  0.23313294  0.89068546    -0.14600
F596        F  0.30910734  0.25651856  0.98353334    -0.16000
C597        C  0.00781470  0.26681483  0.40591899     0.14000
C598        C  0.00855724  0.24023742  0.42294434     0.01000
C599        C  0.03268626  0.23160241  0.44259286     0.16000
C600        C  0.05506126  0.24985813  0.44740065     0.25400
C601        C  0.05388149  0.27723448  0.43234272    -0.40900
C602        C  0.03032686  0.28506633  0.41015700     0.32400
C603        C  0.98304040  0.22300234  0.42483466     0.01100
F604        F  0.03405899  0.20583945  0.45878791    -0.13300
F605        F  0.02842980  0.31077317  0.39391516    -0.13800
C606        C  0.98012836  0.19874497  0.40232098     0.16000
C607        C  0.95653505  0.18180425  0.40672129     0.25400
C608        C  0.93557313  0.18865461  0.43428484    -0.40900
C609        C  0.93861818  0.21342859  0.45620257     0.32400
C610        C  0.96193373  0.23033040  0.45130720     0.14100
F611        F  0.00022961  0.19139706  0.37625633    -0.13200
F612        F  0.91952478  0.22110122  0.48357317    -0.13800
F613        F  0.95447245  0.15859983  0.38429330    -0.16000
F614        F  0.96439747  0.25356203  0.47362120    -0.14600
F615        F  0.98483868  0.27537061  0.38615944    -0.14600
F616        F  0.07768701  0.24076283  0.46750162    -0.16000
C617        C  0.24798540  0.34693415  0.54571888     0.14000
C618        C  0.26990374  0.35699618  0.52224513     0.01000
C619        C  0.26703067  0.35640834  0.48115805     0.16000
C620        C  0.24312773  0.34519263  0.46390094     0.25400
C621        C  0.22161668  0.33452228  0.48742499    -0.40900
C622        C  0.22411404  0.33583591  0.52847793     0.32400
C623        C  0.29637046  0.36596699  0.54088525     0.01100
F624        F  0.28767934  0.36610845  0.45770060    -0.13300
F625        F  0.20368894  0.32562380  0.55195219    -0.13800
C626        C  0.32162863  0.35271457  0.53114677     0.16000
C627        C  0.34556199  0.35756115  0.55338252     0.25400
C628        C  0.34461285  0.37544294  0.58593355    -0.40900
C629        C  0.32004647  0.39027813  0.59388287     0.32400
C630        C  0.29616253  0.38574407  0.57133064     0.14100
F631        F  0.32269650  0.33350298  0.50201253    -0.13200
F632        F  0.31846156  0.40726441  0.62560667    -0.13800
F633        F  0.36938714  0.34369119  0.54439799    -0.16000
F634        F  0.27241929  0.39970372  0.58040166    -0.14600
F635        F  0.25029091  0.34644591  0.58542362    -0.14600
F636        F  0.24185905  0.34300915  0.42423529    -0.16000
C637        C  0.26600461  0.21258169  0.25640693     0.14000
C638        C  0.25312329  0.23815816  0.24797003     0.01000
C639        C  0.25337516  0.24833812  0.20943255     0.16000
C640        C  0.26604983  0.23300075  0.17956996     0.25400
C641        C  0.27903931  0.20730478  0.18789225    -0.40900
C642        C  0.27896766  0.19730794  0.22664734     0.32400
C643        C  0.23783746  0.25315382  0.27900366     0.01100
F644        F  0.24151281  0.27327259  0.20081935    -0.13300
F645        F  0.29072824  0.17240350  0.23556149    -0.13800
C646        C  0.25148714  0.26159832  0.31333489     0.16000
C647        C  0.23625073  0.27241643  0.34475793     0.25400
C648        C  0.20719376  0.27513442  0.34209576    -0.40900
C649        C  0.19374985  0.26803003  0.30693542     0.32400
C650        C  0.20899189  0.25709873  0.27561644     0.14100
F651        F  0.27949626  0.25885186  0.31664257    -0.13200
F652        F  0.16564829  0.26980832  0.30384371    -0.13800
F653        F  0.24981690  0.27990062  0.37799505    -0.16000
F654        F  0.19536885  0.24881883  0.24280899    -0.14600
F655        F  0.26526220  0.20199913  0.29333315    -0.14600
F656        F  0.26615985  0.24368894  0.14266779    -0.16000
C657        C  0.99764086  0.36292360  0.65982096     0.14000
C658        C  0.02464240  0.37380841  0.65870695    -0.08600
C659        C  0.03400095  0.39039754  0.68977963     0.16000
C660        C  0.01665640  0.39575927  0.72192293     0.25400
C661        C  0.98970866  0.38433624  0.72359013    -0.40900
C662        C  0.98035851  0.36806897  0.69192443     0.32400
C663        C  0.04277814  0.36793626  0.62474711     0.01100
F664        F  0.05981744  0.40170125  0.68868332    -0.13300
F665        F  0.95427158  0.35747397  0.69158134    -0.13800
C666        C  0.03486362  0.37688431  0.58728967     0.16000
C667        C  0.05071457  0.36973405  0.55450468     0.25400
C668        C  0.07493927  0.35326006  0.55847077    -0.40900
C669        C  0.08331854  0.34512166  0.59653528     0.32400
C670        C  0.06728499  0.35236824  0.62930355     0.14100
F671        F  0.01150025  0.39244395  0.58242937    -0.13200
F672        F  0.10675903  0.32982985  0.60225625    -0.13800
F673        F  0.04185627  0.37866817  0.51885170    -0.16000
F674        F  0.07516121  0.34336543  0.66539819    -0.14600
F675        F  0.98808556  0.34702965  0.62985514    -0.14600
F676        F  0.02646085  0.41172263  0.75162257    -0.16000
C677        C  0.12703315  0.46634861  0.23598769     0.14000
C678        C  0.12421476  0.46246437  0.27668186     0.01000
C679        C  0.11126432  0.48324454  0.29917652     0.16000
C680        C  0.09987045  0.50678191  0.28109674     0.25400
C681        C  0.10138042  0.51017535  0.24004581    -0.40900
C682        C  0.11591529  0.49013350  0.21779429     0.32400
C683        C  0.13061721  0.43523371  0.29511525     0.01100
F684        F  0.10787997  0.47976084  0.33844098    -0.13300
F685        F  0.11737235  0.49236245  0.17813638    -0.13800
C686        C  0.15257248  0.43220883  0.32200471     0.16000
C687        C  0.15512350  0.40781528  0.34450336     0.25400
C688        C  0.13547080  0.38634507  0.34069404    -0.40900
C689        C  0.11469684  0.38879099  0.31188549     0.32400
C690        C  0.11223564  0.41301279  0.28946936     0.14100
F691        F  0.17064073  0.45341330  0.32781809    -0.13200
F692        F  0.09591422  0.36812149  0.30668245    -0.13800
F693        F  0.17534247  0.40618074  0.37215680    -0.16000
F694        F  0.09058605  0.41560240  0.26421095    -0.14600
F695        F  0.13930729  0.44639931  0.21367483    -0.14600
F696        F  0.08621155  0.52570303  0.30364718    -0.16000
C697        C  0.24456502  0.60811713  0.03886077     0.14000
C698        C  0.22123185  0.60166168  0.01589597     0.01000
C699        C  0.22283788  0.60479833  0.97488662     0.16000
C700        C  0.24678429  0.61595029  0.95744046     0.25400
C701        C  0.26927171  0.62426333  0.98090278    -0.40900
C702        C  0.26839681  0.61921302  0.02146779     0.32400
C703        C  0.19424677  0.59621994  0.03554511     0.01100
F704        F  0.20053609  0.59876219  0.95211537    -0.13300
F705        F  0.29006569  0.62673099  0.04458118    -0.13800
C706        C  0.17274010  0.61588841  0.03213225     0.16000
C707        C  0.14930007  0.61430213  0.05620906     0.25400
C708        C  0.14678421  0.59299113  0.08426775    -0.40900
C709        C  0.16740933  0.57212923  0.08587302     0.32400
C710        C  0.19104801  0.57382438  0.06172334     0.14100
F711        F  0.17530118  0.63785219  0.00736110    -0.13200
F712        F  0.16571034  0.55127251  0.11263046    -0.13800
F713        F  0.12945592  0.63433564  0.05307544    -0.16000
F714        F  0.21136100  0.55427917  0.06496491    -0.14600
F715        F  0.24334529  0.60613746  0.07856940    -0.14600
F716        F  0.24694062  0.62105008  0.91824914    -0.16000
C717        C  0.43887452  0.58799650  0.09999448     0.14000
C718        C  0.45871418  0.60763357  0.11238273     0.01000
C719        C  0.46047266  0.63315703  0.09218306     0.16000
C720        C  0.44256020  0.63902923  0.06093815     0.25400
C721        C  0.42321099  0.61917467  0.04827718    -0.40900
C722        C  0.42165463  0.59353622  0.06774041     0.32400
C723        C  0.47711050  0.60184490  0.14671735     0.01100
F724        F  0.47988354  0.65228746  0.10222208    -0.13300
F725        F  0.40281322  0.57424929  0.05629861    -0.13800
C726        C  0.49271761  0.57703682  0.14911815     0.16000
C727        C  0.50975816  0.57168529  0.18168441     0.25400
C728        C  0.51200984  0.59127644  0.21219419    -0.40900
C729        C  0.49651547  0.61610961  0.20962809     0.32400
C730        C  0.47907797  0.62117760  0.17755449     0.14100
F731        F  0.49187198  0.55813754  0.11958128    -0.13200
F732        F  0.49738186  0.63513040  0.23900965    -0.13800
F733        F  0.52453257  0.54759519  0.18290271    -0.16000
F734        F  0.46339625  0.64470992  0.17728334    -0.14600
F735        F  0.43554280  0.56377708  0.11986284    -0.14600
F736        F  0.44465070  0.66388117  0.04220761    -0.16000
C737        C  0.38269957  0.55834192  0.78430721     0.14000
C738        C  0.36119349  0.53869465  0.78454175     0.01000
C739        C  0.33702362  0.54407772  0.80647222     0.16000
C740        C  0.33518944  0.56788967  0.83006843     0.25400
C741        C  0.35780750  0.58634160  0.83261216    -0.40900
C742        C  0.38114565  0.58183704  0.80828946     0.32400
C743        C  0.36590480  0.51131304  0.76587175     0.01100
F744        F  0.31567564  0.52570764  0.80614626    -0.13300
F745        F  0.40299805  0.59963769  0.80876858    -0.13800
C746        C  0.37103700  0.48792444  0.78957743     0.16000
C747        C  0.38200307  0.46359664  0.77311074     0.25400
C748        C  0.38740388  0.46215584  0.73260380    -0.40900
C749        C  0.38003264  0.48469752  0.70850000     0.32400
C750        C  0.36963481  0.50924456  0.72509551     0.14100
F751        F  0.36757742  0.48943517  0.82907988    -0.13200
F752        F  0.38548375  0.48393385  0.66941097    -0.13800
F753        F  0.38872810  0.44196088  0.79694882    -0.16000
F754        F  0.36483124  0.53158728  0.70170705    -0.14600
F755        F  0.40605799  0.55384571  0.76270196    -0.14600
F756        F  0.31213936  0.57177040  0.85249370    -0.16000
C757        C  0.16079412  0.71751886  0.41009450     0.14000
C758        C  0.13399885  0.71075010  0.39746194     0.01000
C759        C  0.11081166  0.72135605  0.41753686     0.16000
C760        C  0.11431385  0.73818612  0.45054805     0.25400
C761        C  0.14123943  0.74440383  0.46431632    -0.40900
C762        C  0.16445946  0.73410196  0.44328536     0.32400
C763        C  0.13001422  0.69233898  0.36351888     0.01100
F764        F  0.08472522  0.71525770  0.40512133    -0.13300
F765        F  0.19081870  0.73998425  0.45471071    -0.13800
C766        C  0.12118949  0.66489929  0.36923458     0.16000
C767        C  0.11512867  0.64801534  0.33707060     0.25400
C768        C  0.11743366  0.65852468  0.29857707    -0.40900
C769        C  0.12736088  0.68585417  0.29309347     0.32400
C770        C  0.13372082  0.70251853  0.32537322     0.14100
F771        F  0.11818904  0.65459198  0.40609301    -0.13200
F772        F  0.12979471  0.69699073  0.25662986    -0.13800
F773        F  0.10695943  0.62143211  0.34369003    -0.16000
F774        F  0.14250471  0.72898965  0.31946425    -0.14600
F775        F  0.18342784  0.70760083  0.39066661    -0.14600
F776        F  0.09129999  0.74776290  0.46941479    -0.16000
C777        C  0.22995450  0.76892055  0.75285080     0.14000
C778        C  0.23966380  0.74136468  0.75057727     0.01000
C779        C  0.23448007  0.72574122  0.71672357     0.16000
C780        C  0.21976281  0.73733325  0.68556931     0.25400
C781        C  0.20977247  0.76490836  0.68761081    -0.40900
C782        C  0.21486684  0.78056329  0.72173851     0.32400
C783        C  0.25439284  0.72826785  0.78379784     0.01100
F784        F  0.24304669  0.69885856  0.71427011    -0.13300
F785        F  0.20564726  0.80718463  0.72480146    -0.13800
C786        C  0.24100978  0.72514116  0.82015121     0.16000
C787        C  0.25428956  0.71124774  0.85090869     0.25400
C788        C  0.28127176  0.70023455  0.84579640    -0.40900
C789        C  0.29454250  0.70331896  0.80916407     0.32400
C790        C  0.28125867  0.71733875  0.77856422     0.14100
F791        F  0.21485612  0.73517007  0.82564506    -0.13200
F792        F  0.32085785  0.69381788  0.80334638    -0.13800
F793        F  0.24062110  0.70842346  0.88558669    -0.16000
F794        F  0.29488121  0.72080573  0.74396845    -0.14600
F795        F  0.23543110  0.78461732  0.78498789    -0.14600
F796        F  0.21446392  0.72108329  0.65390925    -0.16000
C797        C  0.99715302  0.70223354  0.19729039     0.14000
C798        C  0.00316807  0.72346677  0.17048589     0.01000
C799        C  0.02731638  0.72151158  0.14738579     0.16000
C800        C  0.04553649  0.69882714  0.15163793     0.25400
C801        C  0.04001293  0.67771448  0.17945200    -0.40900
C802        C  0.01532473  0.67977238  0.20200197     0.32400
C803        C  0.98509495  0.74846435  0.16923097     0.01100
F804        F  0.03334169  0.74173236  0.12091283    -0.13300
F805        F  0.00889029  0.66051336  0.22967908    -0.13800
C806        C  0.99513845  0.77399979  0.18302233     0.16000
C807        C  0.97716973  0.79674050  0.18743343     0.25400
C808        C  0.94877106  0.79446900  0.17757400    -0.40900
C809        C  0.93906014  0.76910095  0.16223892     0.32400
C810        C  0.95699092  0.74625702  0.15857551     0.14100
F811        F  0.02205855  0.77642456  0.19442791    -0.13200
F812        F  0.91183255  0.76581060  0.15294245    -0.13800
F813        F  0.98751130  0.82076448  0.20225726    -0.16000
F814        F  0.94667228  0.72161187  0.14596170    -0.14600
F815        F  0.97408196  0.70385461  0.22026211    -0.14600
F816        F  0.06884925  0.69800775  0.12913367    -0.16000
C817        C  0.87342581  0.99037165  0.29313839     0.14000
C818        C  0.86320137  0.01233339  0.27006766     0.01000
C819        C  0.86460513  0.00998129  0.22891304     0.16000
C820        C  0.87716256  0.98659384  0.21126882     0.25400
C821        C  0.88893103  0.96541085  0.23456331    -0.40900
C822        C  0.88661008  0.96748311  0.27567683     0.32400
C823        C  0.85593928  0.03918420  0.28946101     0.01100
F824        F  0.85483367  0.03087910  0.20591609    -0.13300
F825        F  0.89815912  0.94777306  0.29914480    -0.13800
C826        C  0.87474771  0.06137286  0.28689517     0.16000
C827        C  0.87227948  0.08431171  0.31191761     0.25400
C828        C  0.85072331  0.08579263  0.33992208    -0.40900
C829        C  0.83051933  0.06465596  0.34034637     0.32400
C830        C  0.83322097  0.04143478  0.31546527     0.14100
F831        F  0.89690321  0.05980590  0.26221863    -0.13200
F832        F  0.80953857  0.06528597  0.36706203    -0.13800
F833        F  0.89185699  0.10453870  0.31000047    -0.16000
F834        F  0.81445223  0.02051322  0.31811093    -0.14600
F835        F  0.87236090  0.99201028  0.33288739    -0.14600
F836        F  0.87980836  0.98576049  0.17162658    -0.16000
C837        C  0.05972815  0.84478200  0.41461469     0.14000
C838        C  0.03562694  0.86101314  0.41866974     0.01000
C839        C  0.02946127  0.87294289  0.45536337     0.16000
C840        C  0.04702300  0.86852562  0.48754110     0.25400
C841        C  0.07087172  0.85150670  0.48387744    -0.40900
C842        C  0.07706071  0.83995256  0.44668876     0.32400
C843        C  0.01760520  0.86630343  0.38416732     0.01100
F844        F  0.00604276  0.88843311  0.46027472    -0.13300
F845        F  0.09990182  0.82375504  0.44097700    -0.13800
C846        C  0.00668363  0.84416499  0.36213030     0.16000
C847        C  0.99035885  0.84941640  0.32895110     0.25400
C848        C  0.98464078  0.87696481  0.31715699    -0.40900
C849        C  0.99589063  0.89900855  0.33913793     0.32400
C850        C  0.01215307  0.89370269  0.37220708     0.14100
F851        F  0.01180368  0.81741211  0.37274269    -0.13200
F852        F  0.99107758  0.92586220  0.32885678    -0.13800
F853        F  0.98080951  0.82750486  0.30785322    -0.16000
F854        F  0.02326987  0.91544961  0.39200838    -0.14600
F855        F  0.06680645  0.83385275  0.37923595    -0.14600
F856        F  0.04025846  0.88053889  0.52232877    -0.16000
C857        C  0.96710055  0.25256068  0.88446305     0.14000
C858        C  0.99065204  0.25011940  0.86027803     0.01000
C859        C  0.99688459  0.27169907  0.83401835     0.16000
C860        C  0.97930746  0.29486307  0.83074796     0.25400
C861        C  0.95491464  0.29702256  0.85382973    -0.40900
C862        C  0.94958921  0.27586981  0.88168115     0.32400
C863        C  0.00815376  0.22460932  0.86097613     0.01100
F864        F  0.01951345  0.26978154  0.81025548    -0.13300
F865        F  0.92714272  0.27731286  0.90584029    -0.13800
C866        C  0.99736706  0.19926573  0.84764472     0.16000
C867        C  0.01431654  0.17558711  0.84529155     0.25400
C868        C  0.04276261  0.17680840  0.85553854    -0.40900
C869        C  0.05330291  0.20225899  0.86981368     0.32400
C870        C  0.03612423  0.22582044  0.87253416     0.14100
F871        F  0.97065407  0.19776573  0.83502203    -0.13200
F872        F  0.08051882  0.20485129  0.87960017    -0.13800
F873        F  0.00287387  0.15165159  0.83189919    -0.16000
F874        F  0.04697223  0.25010239  0.88565902    -0.14600
F875        F  0.96091316  0.23217682  0.91060494    -0.14600
F876        F  0.98600115  0.31478860  0.80415807    -0.16000
C877        C  0.98724307  0.11705411  0.66691930     0.14000
C878        C  0.96604721  0.09805635  0.65803699     0.01000
C879        C  0.96300185  0.07418359  0.68132194     0.16000
C880        C  0.98043371  0.06969987  0.71352064     0.25400
C881        C  0.00180481  0.08873126  0.72258042    -0.40900
C882        C  0.00496182  0.11247690  0.69873888     0.32400
C883        C  0.94687420  0.10367797  0.62494679     0.01100
F884        F  0.94273647  0.05543867  0.67340670    -0.13300
F885        F  0.02541935  0.13119766  0.70571597    -0.13800
C886        C  0.94445889  0.08485168  0.59365092     0.16000
C887        C  0.92778256  0.09128232  0.56121868     0.25400
C888        C  0.91312164  0.11670860  0.55948422    -0.40900
C889        C  0.91496667  0.13509255  0.59168201     0.32400
C890        C  0.93161130  0.12858782  0.62394727     0.14100
F891        F  0.95902485  0.06062227  0.59383519    -0.13200
F892        F  0.90142682  0.15990525  0.59165972    -0.13800
F893        F  0.92621469  0.07264155  0.53143703    -0.16000
F894        F  0.93302621  0.14684065  0.65426094    -0.14600
F895        F  0.99111245  0.13992165  0.64420712    -0.14600
F896        F  0.97590114  0.04693197  0.73620388    -0.16000
C897        C  0.12586067  0.95799508  0.80910098     0.14000
C898        C  0.12906341  0.95573264  0.76818216     0.01000
C899        C  0.12277767  0.97890502  0.74455021     0.16000
C900        C  0.11137011  0.00301258  0.76120183     0.25400
C901        C  0.10643955  0.00461876  0.80185248    -0.40900
C902        C  0.11485066  0.98232991  0.82585944     0.32400
C903        C  0.13472199  0.92831244  0.74953245     0.01100
F904        F  0.12553665  0.97739811  0.70494235    -0.13300
F905        F  0.11006568  0.98308206  0.86510975    -0.13800
C906        C  0.11544595  0.90663251  0.75419366     0.16000
C907        C  0.11707128  0.88287812  0.73066931     0.25400
C908        C  0.13811813  0.88020756  0.70220510    -0.40900
C909        C  0.15925834  0.90036582  0.70068136     0.32400
C910        C  0.15729555  0.92449899  0.72370305     0.14100
F911        F  0.09378891  0.90932512  0.77954860    -0.13200
F912        F  0.18067556  0.89772522  0.67490000    -0.13800
F913        F  0.09739995  0.86289238  0.73468408    -0.16000
F914        F  0.17677203  0.94464984  0.71961032    -0.14600
F915        F  0.13194846  0.93600745  0.83258903    -0.14600
F916        F  0.10374634  0.02432584  0.73733473    -0.16000
C917        C  0.01335538  0.01695577  0.00495242     0.14000
C918        C  0.00349330  0.98976238  0.99997239     0.01000
C919        C  0.00769024  0.97616421  0.96403389     0.16000
C920        C  0.02137618  0.98964933  0.93330218     0.25400
C921        C  0.03129436  0.01697662  0.93814866    -0.40900
C922        C  0.02710682  0.03046931  0.97437444     0.32400
C923        C  0.98962725  0.97533480  0.03278437     0.01100
F924        F  0.99890927  0.94962301  0.95892394    -0.13300
F925        F  0.03522343  0.05719744  0.97980018    -0.13800
C926        C  0.96242744  0.96509673  0.02889414     0.16000
C927        C  0.94954888  0.95142461  0.06029472     0.25400
C928        C  0.96372626  0.94792265  0.09606829    -0.40900
C929        C  0.99114414  0.95795567  0.09947485     0.32400
C930        C  0.00383924  0.97162692  0.06824784     0.14100
F931        F  0.94818719  0.96881829  0.99492763    -0.13200
F932        F  0.00616861  0.95376207  0.13266673    -0.13800
F933        F  0.92313172  0.94209321  0.05589177    -0.16000
F934        F  0.03036686  0.98075916  0.07237088    -0.14600
F935        F  0.00908937  0.03068601  0.03925870    -0.14600
F936        F  0.02495533  0.97586738  0.89889343    -0.16000
C937        C  0.13487416  0.19648340  0.70368839     0.14000
C938        C  0.12779167  0.18644402  0.66640496     0.01000
C939        C  0.11639489  0.15981839  0.66271273     0.16000
C940        C  0.11140428  0.14361866  0.69598900     0.25400
C941        C  0.11750262  0.15389851  0.73370183    -0.40900
C942        C  0.12982596  0.18034887  0.73716808     0.32400
C943        C  0.13174053  0.20389843  0.63125815     0.01100
F944        F  0.10941839  0.14980430  0.62684706    -0.13300
F945        F  0.13586365  0.19114277  0.77293633    -0.13800
C946        C  0.15375764  0.19850203  0.60538109     0.16000
C947        C  0.15722095  0.21462228  0.57156863     0.25400
C948        C  0.13867434  0.23669873  0.56309080    -0.40900
C949        C  0.11655416  0.24196614  0.58952276     0.32400
C950        C  0.11314568  0.22563259  0.62313523     0.14100
F951        F  0.17217709  0.17778500  0.61324235    -0.13200
F952        F  0.09820648  0.26302371  0.58323153    -0.13800
F953        F  0.17901695  0.20870312  0.54756428    -0.16000
F954        F  0.09152076  0.23092307  0.64774710    -0.14600
F955        F  0.14632671  0.22208550  0.70760288    -0.14600
F956        F  0.10045916  0.11786152  0.69127991    -0.16000
C957        C  0.18353051  0.07399703  0.98475121     0.14000
C958        C  0.18827978  0.09908896  0.00475783     0.01000
C959        C  0.16822276  0.12030138  0.00266021     0.16000
C960        C  0.14520226  0.11762979  0.97809862     0.25400
C961        C  0.14162967  0.09358023  0.95508954    -0.40900
C962        C  0.16009376  0.07105834  0.96054085     0.32400
C963        C  0.21529718  0.10496135  0.02398248     0.01100
F964        F  0.17196457  0.14455340  0.02227576    -0.13300
F965        F  0.15653515  0.04691960  0.94060072    -0.13800
C966        C  0.23926298  0.10852159  0.00080387     0.16000
C967        C  0.26329878  0.12021461  0.01690875     0.25400
C968        C  0.26384675  0.12834677  0.05649674    -0.40900
C969        C  0.24051328  0.12311925  0.08030790     0.32400
C970        C  0.21638383  0.11159342  0.06411640     0.14100
F971        F  0.23865356  0.10276760  0.96181852    -0.13200
F972        F  0.24018178  0.13149070  0.11834180    -0.13800
F973        F  0.28566098  0.12481475  0.99341194    -0.16000
F974        F  0.19348300  0.10843484  0.08703299    -0.14600
F975        F  0.20214418  0.05280432  0.98749733    -0.14600
F976        F  0.12700774  0.13921600  0.97559000    -0.16000
C977        C  0.98229481  0.69576029  0.63407149     0.14000
C978        C  0.98300463  0.72275623  0.61835477     0.01000
C979        C  0.95968705  0.73273623  0.59794436     0.16000
C980        C  0.93653407  0.71578833  0.59178058     0.25400
C981        C  0.93595062  0.68825754  0.60613452    -0.40900
C982        C  0.95899340  0.67872445  0.62830207     0.32400
C983        C  0.00865349  0.73993174  0.61966789     0.01100
F984        F  0.95988207  0.75864978  0.58213940    -0.13300
F985        F  0.95952450  0.65262327  0.64348824    -0.13800
C986        C  0.03270144  0.73102421  0.59983624     0.16000
C987        C  0.05501803  0.74918033  0.59401435     0.25400
C988        C  0.05397525  0.77675074  0.60832944    -0.40900
C989        C  0.03029465  0.78512504  0.62996087     0.32400
C990        C  0.00804221  0.76680603  0.63579706     0.14100
F991        F  0.03399030  0.70514161  0.58406260    -0.13200
F992        F  0.02789192  0.81146929  0.64384957    -0.13800
F993        F  0.07722399  0.73986861  0.57305632    -0.16000
F994        F  0.98541219  0.77559689  0.65626920    -0.14600
F995        F  0.00435835  0.68573900  0.65455982    -0.14600
F996        F  0.91501517  0.72631854  0.57070864    -0.16000
C997        C  0.67351663  0.60400060  0.50370525     0.14000
C998        C  0.69665287  0.58726549  0.49455917     0.01000
C999        C  0.69460734  0.56803006  0.46362975     0.16000
C1000       C  0.67044124  0.56693615  0.44064561     0.25400
C1001       C  0.64832514  0.58557536  0.44762267    -0.40900
C1002       C  0.64978895  0.60353604  0.48007628     0.32400
C1003       C  0.72390959  0.59431707  0.51226275     0.01100
F1004       F  0.71659193  0.55150520  0.45427628    -0.13300
F1005       F  0.62874737  0.62160916  0.48787248    -0.13800
C1006       C  0.72765740  0.59377251  0.55319186     0.16000
C1007       C  0.74993425  0.60801300  0.57045014     0.25400
C1008       C  0.76868293  0.62312490  0.54695253    -0.40900
C1009       C  0.76597070  0.62187581  0.50585225     0.32400
C1010       C  0.74400689  0.60737070  0.48871290     0.14100
F1011       F  0.70865299  0.58104920  0.57653641    -0.13200
F1012       F  0.78374666  0.63603396  0.48220336    -0.13800
F1013       F  0.75157885  0.60918758  0.61017091    -0.16000
F1014       F  0.74091451  0.60832209  0.44913535    -0.14600
F1015       F  0.67486576  0.62264253  0.53353509    -0.14600
F1016       F  0.66971045  0.54947734  0.40938627    -0.16000
C1017       C  0.85906188  0.76762166  0.32658476     0.14000
C1018       C  0.85856908  0.77916462  0.36438320     0.01000
C1019       C  0.86344406  0.80771873  0.36903638     0.16000
C1020       C  0.86965089  0.82437298  0.33645252     0.25400
C1021       C  0.87077707  0.81278392  0.29851060    -0.40900
C1022       C  0.86483761  0.78429976  0.29384888     0.32400
C1023       C  0.85419373  0.76118897  0.39913837     0.01100
F1024       F  0.86291147  0.81931369  0.40533038    -0.13300
F1025       F  0.86595628  0.77226110  0.25785592    -0.13800
C1026       C  0.87640997  0.74576196  0.41460382     0.16000
C1027       C  0.87265153  0.72900685  0.44781286     0.25400
C1028       C  0.84646716  0.72744688  0.46656399    -0.40900
C1029       C  0.82401773  0.74262518  0.45015970     0.32400
C1030       C  0.82795767  0.75937257  0.41691986     0.14100
F1031       F  0.90193335  0.74714920  0.39763068    -0.13200
F1032       F  0.79807298  0.74111543  0.46581185    -0.13800
F1033       F  0.89481513  0.71443214  0.46154285    -0.16000
F1034       F  0.80607047  0.77371405  0.40184317    -0.14600
F1035       F  0.85453211  0.74002047  0.32153960    -0.14600
F1036       F  0.87462759  0.85185177  0.34202913    -0.16000
C1037       C  0.95771207  0.59647048  0.44916077     0.14000
C1038       C  0.94927246  0.60595690  0.41214039     0.01000
C1039       C  0.92398817  0.62020280  0.40828827     0.16000
C1040       C  0.90742880  0.62541381  0.44115959     0.25400
C1041       C  0.91594332  0.61646933  0.47876746    -0.40900
C1042       C  0.94125649  0.60168329  0.48227360     0.32400
C1043       C  0.96701495  0.60155315  0.37740096     0.01100
F1044       F  0.91564969  0.62966041  0.37264223    -0.13300
F1045       F  0.95063719  0.59299884  0.51779146    -0.13800
C1046       C  0.95901243  0.58266516  0.34834754     0.16000
C1047       C  0.97536663  0.57899222  0.31481306     0.25400
C1048       C  0.00029944  0.59407961  0.30988101    -0.40900
C1049       C  0.00787037  0.61349481  0.33900875     0.32400
C1050       C  0.99140238  0.61703704  0.37250253     0.14100
F1051       F  0.93543633  0.56751897  0.35274779    -0.13200
F1052       F  0.03138047  0.62885884  0.33555836    -0.13800
F1053       F  0.96658831  0.56071110  0.28719648    -0.16000
F1054       F  0.99913689  0.63578411  0.40012804    -0.14600
F1055       F  0.98199002  0.58225752  0.45319950    -0.14600
F1056       F  0.88315614  0.63944713  0.43597985    -0.16000
C1057       C  0.83293516  0.54181442  0.72422773     0.14000
C1058       C  0.85642175  0.53763848  0.74801580     0.01000
C1059       C  0.87727463  0.55794189  0.74870822     0.16000
C1060       C  0.87558739  0.58122880  0.72430098     0.25400
C1061       C  0.85301921  0.58468036  0.69844606    -0.40900
C1062       C  0.83114929  0.56525158  0.69968105     0.32400
C1063       C  0.86203122  0.51036837  0.76669846     0.01100
F1064       F  0.90040942  0.55410840  0.77086841    -0.13300
F1065       F  0.80921688  0.56766980  0.67488590    -0.13800
C1066       C  0.87226109  0.48861364  0.74332209     0.16000
C1067       C  0.88440928  0.46519117  0.76060802     0.25400
C1068       C  0.88587179  0.46268122  0.80172858    -0.40900
C1069       C  0.87324795  0.48331260  0.82515255     0.32400
C1070       C  0.86188219  0.50728028  0.80772441     0.14100
F1071       F  0.87255496  0.49113266  0.70363260    -0.13200
F1072       F  0.87413094  0.48148538  0.86487762    -0.13800
F1073       F  0.89613280  0.44559937  0.73707618    -0.16000
F1074       F  0.85222417  0.52816213  0.83086138    -0.14600
F1075       F  0.81252971  0.52241186  0.72321202    -0.14600
F1076       F  0.89677812  0.59980534  0.72465508    -0.16000
C1077       C  0.52705064  0.73659974  0.94922383     0.14000
C1078       C  0.51062863  0.74014264  0.91563326     0.01000
C1079       C  0.51677101  0.76159314  0.88921543     0.16000
C1080       C  0.53904200  0.77949627  0.89643504     0.25400
C1081       C  0.55533585  0.77643147  0.93062652    -0.40900
C1082       C  0.54915761  0.75451520  0.95675563     0.32400
C1083       C  0.48585444  0.72259694  0.91044928     0.01100
F1084       F  0.50100432  0.76533982  0.85663331    -0.13300
F1085       F  0.56370813  0.75095849  0.99050277    -0.13800
C1086       C  0.45935385  0.73398589  0.91666958     0.16000
C1087       C  0.43633799  0.71662676  0.92083078     0.25400
C1088       C  0.43948543  0.68745592  0.91875868    -0.40900
C1089       C  0.46580355  0.67635608  0.90896480     0.32400
C1090       C  0.48878245  0.69385059  0.90496290     0.14100
F1091       F  0.45607477  0.76183031  0.92144704    -0.13200
F1092       F  0.46983133  0.64849847  0.90583089    -0.13800
F1093       F  0.41122951  0.72843325  0.92864133    -0.16000
F1094       F  0.51421975  0.68264000  0.89762116    -0.14600
F1095       F  0.52082464  0.71644523  0.97573366    -0.14600
F1096       F  0.54449235  0.79987833  0.86997380    -0.16000
C1097       C  0.66564263  0.71339413  0.11924338     0.14000
C1098       C  0.64258258  0.71702225  0.14390821     0.01000
C1099       C  0.62248098  0.73719570  0.13447270     0.16000
C1100       C  0.62493675  0.75297676  0.10013133     0.25400
C1101       C  0.64754184  0.74867283  0.07435975    -0.40900
C1102       C  0.66805065  0.72889222  0.08465815     0.32400
C1103       C  0.63708630  0.69692735  0.17578296     0.01100
F1104       F  0.59992066  0.74088937  0.15797243    -0.13300
F1105       F  0.68969841  0.72333016  0.06022371    -0.13800
C1106       C  0.65250071  0.69681803  0.21069858     0.16000
C1107       C  0.64570258  0.67826339  0.24105348     0.25400
C1108       C  0.62336096  0.65940792  0.23679569    -0.40900
C1109       C  0.60907510  0.65887956  0.20060794     0.32400
C1110       C  0.61593335  0.67739181  0.17065382     0.14100
F1111       F  0.67377266  0.71495863  0.21564372    -0.13200
F1112       F  0.58801795  0.64077724  0.19401980    -0.13800
F1113       F  0.66088444  0.67901890  0.27457387    -0.16000
F1114       F  0.60183260  0.67626347  0.13621765    -0.14600
F1115       F  0.68496341  0.69358942  0.12744100    -0.14600
F1116       F  0.60492240  0.77209380  0.09190937    -0.16000
C1117       C  0.80326718  0.89572914  0.05535521     0.14000
C1118       C  0.80135586  0.87306822  0.02945613     0.01000
C1119       C  0.82416807  0.85494022  0.02576941     0.16000
C1120       C  0.84722311  0.85765005  0.05050151     0.25400
C1121       C  0.84820095  0.87896433  0.07886798    -0.40900
C1122       C  0.82676917  0.89897466  0.07935953     0.32400
C1123       C  0.77431899  0.86526756  0.01156898     0.01100
F1124       F  0.82309939  0.83316451  0.00048121    -0.13300
F1125       F  0.82735487  0.92021232  0.10551974    -0.13800
C1126       C  0.77056567  0.86498834  0.97060400     0.16000
C1127       C  0.74673269  0.85282723  0.95417750     0.25400
C1128       C  0.72693522  0.84000291  0.97850541    -0.40900
C1129       C  0.72998490  0.84165721  0.01941801     0.32400
C1130       C  0.75326888  0.85447238  0.03580121     0.14100
F1131       F  0.79044104  0.87554172  0.94657977    -0.13200
F1132       F  0.71076570  0.82996268  0.04352934    -0.13800
F1133       F  0.74390285  0.85191381  0.91457808    -0.16000
F1134       F  0.75616392  0.85470629  0.07541927    -0.14600
F1135       F  0.78163052  0.91374191  0.05903353    -0.14600
F1136       F  0.86797096  0.83848407  0.04813285    -0.16000
C1137       C  0.72002209  0.72308344  0.80689176     0.14000
C1138       C  0.73612231  0.74007245  0.78236179     0.01000
C1139       C  0.73608997  0.76900848  0.78827101     0.16000
C1140       C  0.72041690  0.78073202  0.81875410     0.25400
C1141       C  0.70505539  0.76358799  0.84409154    -0.40900
C1142       C  0.70473777  0.73470209  0.83764411     0.32400
C1143       C  0.75212889  0.72744840  0.74989090     0.01100
F1144       F  0.75183194  0.78577190  0.76519536    -0.13300
F1145       F  0.68932220  0.71773985  0.86090739    -0.13800
C1146       C  0.74548352  0.73404804  0.71102522     0.16000
C1147       C  0.75920123  0.72088894  0.68005052     0.25400
C1148       C  0.77975050  0.70041192  0.68728056    -0.40900
C1149       C  0.78689719  0.69443301  0.72656169     0.32400
C1150       C  0.77312484  0.70781338  0.75751592     0.14100
F1151       F  0.72514124  0.75285701  0.70301336    -0.13200
F1152       F  0.80723977  0.67578246  0.73523507    -0.13800
F1153       F  0.75242563  0.72862651  0.64295683    -0.16000
F1154       F  0.78036909  0.70172944  0.79505271    -0.14600
F1155       F  0.71887843  0.69522528  0.80070414    -0.14600
F1156       F  0.72119852  0.80863344  0.82458389    -0.16000
C1157       C  0.49959010  0.77094155  0.33498597     0.14000
C1158       C  0.49332406  0.74867253  0.36015437     0.01000
C1159       C  0.46891175  0.74985431  0.38278897     0.16000
C1160       C  0.45049438  0.77230523  0.37923407     0.25400
C1161       C  0.45604103  0.79420598  0.35277818    -0.40900
C1162       C  0.48122774  0.79343413  0.33125267     0.32400
C1163       C  0.51146009  0.72358962  0.36107567     0.01100
F1164       F  0.46275373  0.72904974  0.40825892    -0.13300
F1165       F  0.48791938  0.81397840  0.30558710    -0.13800
C1166       C  0.53991379  0.72577746  0.36981266     0.16000
C1167       C  0.55741467  0.70245960  0.36726958     0.25400
C1168       C  0.54669854  0.67632002  0.35638172    -0.40900
C1169       C  0.51792501  0.67407425  0.34906234     0.32400
C1170       C  0.50058961  0.69745822  0.35112355     0.14100
F1171       F  0.55086506  0.75069747  0.38009508    -0.13200
F1172       F  0.50655314  0.64930074  0.33897215    -0.13800
F1173       F  0.58508033  0.70590128  0.37329300    -0.16000
F1174       F  0.47332864  0.69479115  0.34155474    -0.14600
F1175       F  0.52302179  0.77039280  0.31266783    -0.14600
F1176       F  0.42687359  0.77208302  0.40111525    -0.16000
C1177       C  0.36445779  0.98922094  0.24590088     0.14000
C1178       C  0.35830268  0.01157513  0.27107210     0.01000
C1179       C  0.36178510  0.00795835  0.31173875     0.16000
C1180       C  0.37275062  0.98299935  0.32672944     0.25400
C1181       C  0.38107022  0.96152217  0.30119216    -0.40900
C1182       C  0.37582266  0.96447926  0.26079046     0.32400
C1183       C  0.35276306  0.03960819  0.25412586     0.01100
F1184       F  0.35614134  0.02923276  0.33668807    -0.13300
F1185       F  0.38302095  0.94387105  0.23548874    -0.13800
C1186       C  0.32848404  0.04528710  0.23248529     0.16000
C1187       C  0.32619211  0.06987388  0.21024060     0.25400
C1188       C  0.34856635  0.08864923  0.20836285    -0.40900
C1189       C  0.37166426  0.08404437  0.23298157     0.32400
C1190       C  0.37375749  0.05978467  0.25546329     0.14100
F1191       F  0.30769401  0.02631739  0.23119155    -0.13200
F1192       F  0.39314000  0.10229981  0.23341895    -0.13800
F1193       F  0.30318530  0.07407039  0.18798123    -0.16000
F1194       F  0.39746961  0.05488535  0.27594166    -0.14600
F1195       F  0.36164836  0.99222303  0.20648957    -0.14600
F1196       F  0.37763795  0.98084794  0.36583227    -0.16000
C1197       C  0.52759053  0.86433036  0.08016694     0.14000
C1198       C  0.53970955  0.86707258  0.11735968     0.01000
C1199       C  0.56852580  0.86349812  0.12170343     0.16000
C1200       C  0.58497830  0.85660871  0.08927740     0.25400
C1201       C  0.57279657  0.85364512  0.05204123    -0.40900
C1202       C  0.54399578  0.85766780  0.04772411     0.32400
C1203       C  0.52194828  0.87189031  0.15194071     0.01100
F1204       F  0.58052395  0.86573588  0.15757502    -0.13300
F1205       F  0.53150728  0.85372183  0.01246905    -0.13800
C1206       C  0.50276706  0.85158511  0.16338334     0.16000
C1207       C  0.48560416  0.85588871  0.19589302     0.25400
C1208       C  0.48715252  0.88086898  0.21757268    -0.40900
C1209       C  0.50698937  0.90098291  0.20622189     0.32400
C1210       C  0.52409374  0.89652225  0.17357872     0.14100
F1211       F  0.50086029  0.82736658  0.14311979    -0.13200
F1212       F  0.51010073  0.92495830  0.22669755    -0.13800
F1213       F  0.46754385  0.83544329  0.20593702    -0.16000
F1214       F  0.54245846  0.91647184  0.16263172    -0.14600
F1215       F  0.49974622  0.86765905  0.07545585    -0.14600
F1216       F  0.61273398  0.85271339  0.09427613    -0.16000
C1217       C  0.38190336  0.73440772  0.12244819     0.14000
C1218       C  0.36280679  0.75482400  0.13447233     0.01000
C1219       C  0.33907773  0.76002216  0.11173965     0.16000
C1220       C  0.33454091  0.74524144  0.07713694     0.25400
C1221       C  0.35386940  0.72507682  0.06441763    -0.40900
C1222       C  0.37767015  0.71984138  0.08748344     0.32400
C1223       C  0.36843587  0.77221265  0.16915224     0.01100
F1224       F  0.32031013  0.77959724  0.12310950    -0.13300
F1225       F  0.39675112  0.70045057  0.07651116    -0.13800
C1226       C  0.37335869  0.80070216  0.16412705     0.16000
C1227       C  0.37831883  0.81768041  0.19646105     0.25400
C1228       C  0.37871185  0.80643410  0.23456994    -0.40900
C1229       C  0.37368031  0.77775405  0.23961590     0.32400
C1230       C  0.36858115  0.76078233  0.20705385     0.14100
F1231       F  0.37375155  0.81202321  0.12762863    -0.13200
F1232       F  0.37455963  0.76595707  0.27581272    -0.13800
F1233       F  0.38250506  0.84524705  0.19043260    -0.16000
F1234       F  0.36364744  0.73326284  0.21246330    -0.14600
F1235       F  0.40496967  0.72903692  0.14412103    -0.14600
F1236       F  0.31154524  0.75122550  0.05564443    -0.16000
C1237       C  0.26964055  0.86133107  0.55917814     0.14000
C1238       C  0.27095572  0.86527559  0.51835373     0.01000
C1239       C  0.24742964  0.85950237  0.49543882     0.16000
C1240       C  0.22400751  0.84722801  0.51250990     0.25400
C1241       C  0.22362379  0.84110596  0.55282109    -0.40900
C1242       C  0.24604924  0.84933924  0.57636715     0.32400
C1243       C  0.29818929  0.86877606  0.49870631     0.01100
F1244       F  0.24811439  0.86346526  0.45599985    -0.13300
F1245       F  0.24625428  0.84320748  0.61525708    -0.13800
C1246       C  0.31548570  0.84543050  0.49467725     0.16000
C1247       C  0.33924554  0.84651385  0.47111531     0.25400
C1248       C  0.34621980  0.87109213  0.45069558    -0.40900
C1249       C  0.32989225  0.89513173  0.45721876     0.32400
C1250       C  0.30587224  0.89385954  0.48072772     0.14100
F1251       F  0.30843215  0.82098201  0.51195231    -0.13200
F1252       F  0.33630802  0.91951156  0.43936536    -0.13800
F1253       F  0.35486160  0.82307796  0.46740436    -0.16000
F1254       F  0.28965917  0.91682224  0.48493124    -0.14600
F1255       F  0.29202314  0.86715807  0.58186809    -0.14600
F1256       F  0.20234529  0.83975248  0.48934410    -0.16000
C1257       C  0.45794083  0.24426223  0.68040883     0.14000
C1258       C  0.48522308  0.24913711  0.66705035     0.01000
C1259       C  0.49333092  0.27648659  0.65794561     0.16000
C1260       C  0.47488018  0.29865627  0.66384285     0.25400
C1261       C  0.44794834  0.29367938  0.67805614    -0.40900
C1262       C  0.43937059  0.26633981  0.68537504     0.32400
C1263       C  0.50562028  0.22596739  0.66624182     0.01100
F1264       F  0.51921509  0.28173541  0.64385644    -0.13300
F1265       F  0.41347080  0.26120173  0.69955468    -0.13800
C1266       C  0.49925402  0.20082644  0.64722752     0.16000
C1267       C  0.51604694  0.17733741  0.65275627     0.25400
C1268       C  0.53989585  0.17894848  0.67631970    -0.40900
C1269       C  0.54738320  0.20456086  0.69288917     0.32400
C1270       C  0.53029413  0.22783379  0.68816508     0.14100
F1271       F  0.47639933  0.19890368  0.62407733    -0.13200
F1272       F  0.57018586  0.20653641  0.71614673    -0.13800
F1273       F  0.50889186  0.15297177  0.63550525    -0.16000
F1274       F  0.53696487  0.25166998  0.70720262    -0.14600
F1275       F  0.44972273  0.21830227  0.69081965    -0.14600
F1276       F  0.48322219  0.32495772  0.65561531    -0.16000
C1277       C  0.46130589  0.07243212  0.86374194     0.14000
C1278       C  0.45861177  0.09910469  0.87975775     0.01000
C1279       C  0.47226466  0.12148256  0.86183859     0.16000
C1280       C  0.48863836  0.11726098  0.82833945     0.25400
C1281       C  0.49154961  0.09043119  0.81194631    -0.40900
C1282       C  0.47751431  0.06806707  0.83013892     0.32400
C1283       C  0.44228101  0.10346873  0.91599168     0.01100
F1284       F  0.46986479  0.14746158  0.87704654    -0.13300
F1285       F  0.47949113  0.04183491  0.81571037    -0.13800
C1286       C  0.45585185  0.10559586  0.95225002     0.16000
C1287       C  0.44063413  0.11061171  0.98661587     0.25400
C1288       C  0.41154734  0.11385800  0.98510767    -0.40900
C1289       C  0.39797200  0.11113097  0.94866825     0.32400
C1290       C  0.41323601  0.10590705  0.91443445     0.14100
F1291       F  0.48395763  0.10326319  0.95415524    -0.13200
F1292       F  0.36988731  0.11363555  0.94616007    -0.13800
F1293       F  0.45450411  0.11366996  0.02097463    -0.16000
F1294       F  0.39974609  0.10385227  0.87960706    -0.14600
F1295       F  0.44860606  0.05047961  0.88117426    -0.14600
F1296       F  0.50196834  0.13944885  0.81252021    -0.16000
C1297       C  0.62587460  0.96368011  0.73082956     0.14000
C1298       C  0.62189284  0.95787272  0.77088481     0.01000
C1299       C  0.60667065  0.97663527  0.79400232     0.16000
C1300       C  0.59351691  0.99953008  0.77688470     0.25400
C1301       C  0.59577039  0.00451202  0.73625566    -0.40900
C1302       C  0.61325833  0.98716833  0.71368627     0.32400
C1303       C  0.62889969  0.93036469  0.78781906     0.01100
F1304       F  0.60293165  0.97163622  0.83287945    -0.13300
F1305       F  0.61641378  0.99169211  0.67461587    -0.13800
C1306       C  0.65273665  0.92649116  0.81098261     0.16000
C1307       C  0.65545198  0.90269882  0.83469510     0.25400
C1308       C  0.63441055  0.88237535  0.83522001    -0.40900
C1309       C  0.61151593  0.88558680  0.80980345     0.32400
C1310       C  0.60876267  0.90938161  0.78658983     0.14100
F1311       F  0.67253702  0.94648836  0.81234564    -0.13200
F1312       F  0.59099874  0.86627682  0.80876948    -0.13800
F1313       F  0.67740342  0.90074813  0.85952465    -0.16000
F1314       F  0.58535209  0.91290489  0.76489331    -0.14600
F1315       F  0.64067556  0.94583109  0.70801878    -0.14600
F1316       F  0.57756858  0.01625994  0.79990214    -0.16000
C1317       C  0.47668181  0.99373533  0.46094738     0.14000
C1318       C  0.48022275  0.98102582  0.49763368     0.01000
C1319       C  0.46991855  0.95409121  0.50376233     0.16000
C1320       C  0.45724978  0.93958155  0.47319468     0.25400
C1321       C  0.45439118  0.95188272  0.43584525    -0.40900
C1322       C  0.46379764  0.97937932  0.43033625     0.32400
C1323       C  0.49398559  0.99594953  0.53006169     0.01100
F1324       F  0.47274677  0.94155508  0.53926037    -0.13300
F1325       F  0.46046046  0.99249935  0.39537045    -0.13800
C1326       C  0.47910788  0.00136421  0.56456856     0.16000
C1327       C  0.49214063  0.01375062  0.59645651     0.25400
C1328       C  0.52047245  0.02127911  0.59450213    -0.40900
C1329       C  0.53517168  0.01678898  0.55928787     0.32400
C1330       C  0.52202694  0.00402134  0.52734898     0.14100
F1331       F  0.45170792  0.99485854  0.56723964    -0.13200
F1332       F  0.56232499  0.02409112  0.55606947    -0.13800
F1333       F  0.47663682  0.01898402  0.62900944    -0.16000
F1334       F  0.53682810  0.99887372  0.49415845    -0.14600
F1335       F  0.48534669  0.02023441  0.45497688    -0.14600
F1336       F  0.44880467  0.91309630  0.47991625    -0.16000
C1337       C  0.63228273  0.16525625  0.86024881     0.14000
C1338       C  0.61383742  0.18623026  0.87273575     0.01000
C1339       C  0.58903742  0.19083710  0.85192759     0.16000
C1340       C  0.58265555  0.17454854  0.81938399     0.25400
C1341       C  0.60135360  0.15395775  0.80654824    -0.40900
C1342       C  0.62620909  0.14943966  0.82704872     0.32400
C1343       C  0.62036142  0.20338867  0.90735527     0.01100
F1344       F  0.57132742  0.21157872  0.86257485    -0.13300
F1345       F  0.64420757  0.12922593  0.81546538    -0.13800
C1346       C  0.64542627  0.21825888  0.90915815     0.16000
C1347       C  0.65117453  0.23510030  0.94144553     0.25400
C1348       C  0.63177401  0.23757085  0.97218075    -0.40900
C1349       C  0.60678054  0.22252554  0.97044980     0.32400
C1350       C  0.60120104  0.20547791  0.93839508     0.14100
F1351       F  0.66396700  0.21714465  0.87908587    -0.13200
F1352       F  0.58798198  0.22382476  0.00020972    -0.13800
F1353       F  0.67526928  0.24972063  0.94198135    -0.16000
F1354       F  0.57716872  0.19074566  0.93784783    -0.14600
F1355       F  0.65592401  0.15979288  0.88058691    -0.14600
F1356       F  0.55866281  0.17953026  0.79957733    -0.16000
C1357       C  0.73757769  0.12219491  0.55340216     0.14000
C1358       C  0.71733481  0.10804471  0.53174176     0.01000
C1359       C  0.72168000  0.10335671  0.49148741     0.16000
C1360       C  0.74515869  0.11444651  0.47257978     0.25400
C1361       C  0.76427004  0.13059234  0.49381717    -0.40900
C1362       C  0.76080841  0.13335923  0.53467353     0.32400
C1363       C  0.68986845  0.10309897  0.54994442     0.01100
F1364       F  0.70217051  0.08988426  0.47006642    -0.13300
F1365       F  0.77924155  0.14824286  0.55621166    -0.13800
C1366       C  0.67177259  0.12573174  0.55471358     0.16000
C1367       C  0.64708202  0.12283668  0.57580685     0.25400
C1368       C  0.64000565  0.09715094  0.59320817    -0.40900
C1369       C  0.65764332  0.07406860  0.58682935     0.32400
C1370       C  0.68249472  0.07709818  0.56544614     0.14100
F1371       F  0.67865092  0.15109176  0.54013587    -0.13200
F1372       F  0.65169384  0.04900559  0.60304428    -0.13800
F1373       F  0.63054095  0.14558896  0.58010212    -0.16000
F1374       F  0.69997608  0.05505944  0.56151035    -0.14600
F1375       F  0.73379899  0.12689996  0.59234047    -0.14600
F1376       F  0.74784971  0.11152143  0.43314287    -0.16000
loop_ 
_geom_bond_atom_site_label_1 
_geom_bond_atom_site_label_2 
_geom_bond_distance 
_geom_bond_site_symmetry_2 
_ccdc_geom_bond_type 
O1           Ni7   1.914       .  S
O1           C22   1.268       .  A
O2          Ni25   1.900       .  S
O2           C11   1.267       .  A
O3           Ni7   1.895       .  S
O3          Ni25   1.893       .  S
O3          Ni19   1.914       .  S
O3           H26   0.967       .  S
C4           O21   1.278       .  A
C4           O13   1.278       .  A
C4         C1328   1.482       .  S
O5          Ni24   1.939       .  S
O5           C11   1.275       .  A
O6          Ni24   1.900       .  S
O6            C8   1.268       .  A
Ni7          O10   1.916       .  S
Ni7          O12   1.912       .  S
C8           O18   1.276       .  A
C8         C1301   1.486       .  S
O9          Ni25   1.917       .  S
O9           C15   1.276       .  A
O10          C15   1.277       .  A
C11        C1281   1.492       .  S
O12          C14   1.267       .  A
O13         Ni24   1.923       .  S
C14          O20   1.268       .  A
C14        C1268   1.470       .  S
C15        C1341   1.464       .  S
H16          O17   0.966       .  S
O17         Ni25   1.896       .  S
O17         Ni19   1.911       .  S
O17         Ni24   1.892       .  S
O18         Ni19   1.949       .  S
Ni19         O23   1.930       .  S
Ni19         O21   1.916       .  S
O20         Ni25   1.921       .  S
C22          O23   1.274       .  A
C22        C1368   1.489       .  S
O27         Ni33   1.927       .  S
O27          C48   1.270       .  A
O28         Ni51   1.919       .  S
O28          C37   1.270       .  A
O29         Ni33   1.920       .  S
O29         Ni51   1.920       .  S
O29         Ni45   1.924       .  S
O29          H52   0.967       .  S
C30          O47   1.274       .  A
C30          O39   1.277       .  A
C30        C1228   1.480       .  S
O31         Ni50   1.929       .  S
O31          C37   1.271       .  A
O32         Ni50   1.909       .  S
O32          C34   1.268       .  A
Ni33         O36   1.932       .  S
Ni33         O38   1.905       .  S
C34          O44   1.268       .  A
C34        C1161   1.493       .  S
O35         Ni51   1.902       .  S
O35          C41   1.268       .  A
O36          C41   1.272       .  A
C37        C1248   1.492       .  S
O38          C40   1.271       .  A
O39         Ni50   1.932       .  S
C40          O46   1.282       .  A
C40        C1181   1.485       .  S
C41        C1321   1.485       .  S
H42          O43   0.966       .  S
O43         Ni51   1.902       .  S
O43         Ni45   1.899       .  S
O43         Ni50   1.922       .  S
O44         Ni45   1.921       .  S
Ni45         O49   1.895       .  S
Ni45         O47   1.904       .  S
O46         Ni51   1.964       .  S
C48          O49   1.264       .  A
C48        C1208   1.489       .  S
O53         Ni59   1.924       .  S
O53          C74   1.269       .  A
O54         Ni77   1.906   1_554  S
O54          C63   1.265       .  A
O55         Ni59   1.909       .  S
O55         Ni77   1.902       .  S
O55         Ni71   1.905       .  S
O55          H78   0.966       .  S
C56          O73   1.275       .  A
C56          O65   1.273       .  A
C56        C1141   1.472       .  S
O57         Ni76   1.930   1_554  S
O57          C63   1.269       .  A
O58         Ni76   1.904       .  S
O58          C60   1.269       .  A
Ni59         O62   1.927       .  S
Ni59         O64   1.903       .  S
C60          O70   1.274       .  A
C60        C1128   1.476       .  S
O61         Ni77   1.899   1_554  S
O61          C67   1.272       .  A
O62          C67   1.277   1_556  A
C63        C1101   1.487       .  S
O64          C66   1.266       .  A
O65         Ni76   1.914       .  S
C66          O72   1.269       .  A
C66        C1081   1.486       .  S
C67        C1201   1.469       .  S
H68          O69   0.965       .  S
O69         Ni77   1.909       .  S
O69         Ni71   1.925       .  S
O69         Ni76   1.911       .  S
O70         Ni71   1.936       .  S
Ni71         O75   1.926       .  S
Ni71         O73   1.918       .  S
O72         Ni77   1.924       .  S
C74          O75   1.272       .  A
C74        C1308   1.487       .  S
O79         Ni85   1.929       .  S
O79         C100   1.271       .  A
O80        Ni103   1.922       .  S
O80          C89   1.269       .  A
O81         Ni85   1.919       .  S
O81        Ni103   1.922       .  S
O81         Ni97   1.916       .  S
O81         H104   0.966       .  S
C82          O99   1.271       .  A
C82          O91   1.277       .  A
C82        C1041   1.486       .  S
O83        Ni102   1.929       .  S
O83          C89   1.271       .  A
O84        Ni102   1.909       .  S
O84          C86   1.268       .  A
Ni85         O88   1.929       .  S
Ni85         O90   1.898       .  S
C86          O96   1.275       .  A
C86         C981   1.499       .  S
O87        Ni103   1.907       .  S
O87          C93   1.269       .  A
O88          C93   1.272       .  A
C89        C1061   1.486       .  S
O90          C92   1.269       .  A
O91        Ni102   1.931       .  S
C92          O98   1.279       .  A
C92        C1008   1.484       .  S
C93        C1148   1.489       .  S
H94          O95   0.966       .  S
O95        Ni103   1.904       .  S
O95         Ni97   1.905       .  S
O95        Ni102   1.918       .  S
O96         Ni97   1.936       .  S
Ni97        O101   1.908       .  S
Ni97         O99   1.899       .  S
O98        Ni103   1.959       .  S
C100        O101   1.269       .  A
C100       C1028   1.497       .  S
O105       Ni111   1.923       .  S
O105        C126   1.270       .  A
O106       Ni129   1.920       .  S
O106        C115   1.269       .  A
O107       Ni111   1.913       .  S
O107       Ni129   1.915       .  S
O107       Ni123   1.916       .  S
O107        H130   0.967       .  S
C108        O125   1.276       .  A
C108        O117   1.279       .  A
C108        C941   1.482       .  S
O109       Ni128   1.929       .  S
O109        C115   1.271       .  A
O110       Ni128   1.916       .  S
O110        C112   1.269       .  A
Ni111       O114   1.930       .  S
Ni111       O116   1.900       .  S
C112        O122   1.269       .  A
C112        C868   1.496       .  S
O113       Ni129   1.896       .  S
O113        C119   1.268       .  A
O114        C119   1.272       .  A
C115        C961   1.488       .  S
O116        C118   1.268       .  A
O117       Ni128   1.931       .  S
C118        O124   1.281       .  A
C118        C901   1.483       .  S
C119        C921   1.478       .  S
H120        O121   0.966       .  S
O121       Ni129   1.904       .  S
O121       Ni123   1.897       .  S
O121       Ni128   1.915       .  S
O122       Ni123   1.922       .  S
Ni123       O127   1.902       .  S
Ni123       O125   1.909       .  S
O124       Ni129   1.964       .  S
C126        O127   1.267       .  A
C126        C881   1.488       .  S
O131       Ni137   1.934       .  S
O131        C152   1.271       .  A
O132       Ni155   1.899       .  S
O132        C141   1.263       .  A
O133       Ni137   1.922       .  S
O133       Ni155   1.902       .  S
O133       Ni149   1.902       .  S
O133        H156   0.967       .  S
C134        O151   1.268       .  A
C134        O143   1.270       .  A
C134        C928   1.479       .  S
O135       Ni154   1.924       .  S
O135        C141   1.269       .  A
O136       Ni154   1.900       .  S
O136        C138   1.271       .  A
Ni137       O140   1.940       .  S
Ni137       O142   1.909       .  S
C138        O148   1.284       .  A
C138        C821   1.490       .  S
O139       Ni155   1.908       .  S
O139        C145   1.274       .  A
O140        C145   1.279       .  A
C141        C848   1.485       .  S
O142        C144   1.266       .  A
O143       Ni154   1.918       .  S
C144        O150   1.267       .  A
C144        C808   1.486       .  S
C145       C1021   1.485       .  S
H146        O147   0.966       .  S
O147       Ni155   1.924       .  S
O147       Ni149   1.927       .  S
O147       Ni154   1.918       .  S
O148       Ni149   1.968       .  S
Ni149       O153   1.927       .  S
Ni149       O151   1.906       .  S
O150       Ni155   1.920       .  S
C152        O153   1.273       .  A
C152       C1121   1.489       .  S
O157       Ni163   1.923       .  S
O157        C178   1.268       .  A
O158       Ni181   1.911       .  S
O158        C167   1.268       .  A
O159       Ni163   1.919       .  S
O159       Ni181   1.923       .  S
O159       Ni175   1.913       .  S
O159        H182   0.967       .  S
C160        O177   1.270       .  A
C160        O169   1.280       .  A
C160        C841   1.492       .  S
O161       Ni180   1.938       .  S
O161        C167   1.274       .  A
O162       Ni180   1.915       .  S
O162        C164   1.269       .  A
Ni163       O166   1.918       .  S
Ni163       O168   1.898       .  S
C164        O174   1.269       .  A
C164        C988   1.495       .  S
O165       Ni181   1.911       .  S
O165        C171   1.271       .  A
O166        C171   1.272       .  A
C167        C908   1.483       .  S
O168        C170   1.267       .  A
O169       Ni180   1.943       .  S
C170        O176   1.274       .  A
C170       C1241   1.472       .  S
C171        C781   1.481       .  S
H172        O173   0.966       .  S
O173       Ni181   1.907       .  S
O173       Ni175   1.899       .  S
O173       Ni180   1.920       .  S
O174       Ni175   1.922       .  S
Ni175       O179   1.900       .  S
Ni175       O177   1.894       .  S
O176       Ni181   1.940       .  S
C178        O179   1.263       .  A
C178        C761   1.486       .  S
O183       Ni189   1.926       .  S
O183        C204   1.270       .  A
O184       Ni207   1.891   1_554  S
O184        C193   1.263       .  A
O185       Ni189   1.914       .  S
O185       Ni207   1.901       .  S
O185       Ni201   1.913       .  S
O185        H208   0.966       .  S
C186        O203   1.274       .  A
C186        O195   1.277       .  A
C186        C788   1.479       .  S
O187       Ni206   1.936   1_554  S
O187        C193   1.273       .  A
O188       Ni206   1.897       .  S
O188        C190   1.267       .  A
Ni189       O192   1.930       .  S
Ni189       O194   1.913       .  S
C190        O200   1.274       .  A
C190        C701   1.474       .  S
O191       Ni207   1.913   1_554  S
O191        C197   1.273       .  A
O192        C197   1.277   1_556  A
C193       C1221   1.481       .  S
O194        C196   1.268       .  A
O195       Ni206   1.932       .  S
C196        O202   1.267       .  A
C196       C1088   1.485       .  S
C197        C721   1.474       .  S
H198        O199   0.970       .  S
O199       Ni207   1.903       .  S
O199       Ni201   1.910       .  S
O199       Ni206   1.904       .  S
O200       Ni201   1.945       .  S
Ni201       O205   1.918       .  S
Ni201       O203   1.902       .  S
O202       Ni207   1.909       .  S
C204        O205   1.269       .  A
C204        C741   1.484       .  S
O209       Ni215   1.932       .  S
O209        C230   1.273       .  A
O210       Ni233   1.898       .  S
O210        C219   1.265       .  A
O211       Ni215   1.910       .  S
O211       Ni233   1.892       .  S
O211       Ni227   1.885       .  S
O211        H234   0.969       .  S
C212        O229   1.263       .  A
C212        O221   1.269       .  A
C212        C648   1.470       .  S
O213       Ni232   1.922       .  S
O213        C219   1.270       .  A
O214       Ni232   1.895       .  S
O214        C216   1.271       .  A
Ni215       O218   1.934       .  S
Ni215       O220   1.918       .  S
C216        O226   1.284       .  A
C216        C621   1.478       .  S
O217       Ni233   1.903       .  S
O217        C223   1.273       .  A
O218        C223   1.278       .  A
C219        C948   1.491       .  S
O220        C222   1.269       .  A
O221       Ni232   1.931       .  S
C222        O228   1.271       .  A
C222        C601   1.497       .  S
C223        C668   1.488       .  S
H224        O225   0.948       .  S
O225       Ni233   1.934       .  S
O225       Ni227   1.923       .  S
O225       Ni232   1.919       .  S
O226       Ni227   1.964       .  S
Ni227       O231   1.919       .  S
Ni227       O229   1.895       .  S
O228       Ni233   1.933       .  S
C230        O231   1.270       .  A
C230        C688   1.483       .  S
O235       Ni241   1.925       .  S
O235        C256   1.270       .  A
O236       Ni259   1.928       .  S
O236        C245   1.274       .  A
O237       Ni241   1.918       .  S
O237       Ni259   1.922       .  S
O237       Ni253   1.917       .  S
O237        H260   0.966       .  S
C238        O255   1.267       .  A
C238        O247   1.278       .  A
C238       C1288   1.482   1_554  S
O239       Ni258   1.930       .  S
O239        C245   1.272       .  A
O240       Ni258   1.906       .  S
O240        C242   1.266       .  A
Ni241       O244   1.924       .  S
Ni241       O246   1.904       .  S
C242        O252   1.271       .  A
C242        C561   1.491       .  S
O243       Ni259   1.908       .  S
O243        C249   1.269       .  A
O244        C249   1.269       .  A
C245       C1188   1.490       .  S
O246        C248   1.271       .  A
O247       Ni258   1.948       .  S
C248        O254   1.282       .  A
C248        C968   1.478       .  S
C249        C641   1.477       .  S
H250        O251   0.966       .  S
O251       Ni259   1.905       .  S
O251       Ni253   1.905       .  S
O251       Ni258   1.923       .  S
O252       Ni253   1.928       .  S
Ni253       O257   1.903       .  S
Ni253       O255   1.892       .  S
O254       Ni259   1.961       .  S
C256        O257   1.265       .  A
C256        C581   1.494   1_554  S
O261       Ni267   1.943       .  S
O261        C282   1.273       .  A
O262       Ni285   1.917       .  S
O262        C271   1.271       .  A
O263       Ni267   1.909       .  S
O263       Ni285   1.916       .  S
O263       Ni279   1.912       .  S
O263        H286   0.966       .  S
C264        O281   1.276       .  A
C264        O273   1.280       .  A
C264       C1108   1.495       .  S
O265       Ni284   1.935       .  S
O265        C271   1.273       .  A
O266       Ni284   1.919       .  S
O266        C268   1.270       .  A
Ni267       O270   1.926       .  S
Ni267       O272   1.905       .  S
C268        O278   1.269       .  A
C268       C1168   1.490       .  S
O269       Ni285   1.931       .  S
O269        C275   1.280       .  A
O270        C275   1.277       .  A
C271       C1001   1.482       .  S
O272        C274   1.269       .  A
O273       Ni284   1.938       .  S
C274        O280   1.275       .  A
C274        C528   1.480       .  S
C275        C548   1.502       .  S
H276        O277   0.967       .  S
O277       Ni285   1.919       .  S
O277       Ni279   1.900       .  S
O277       Ni284   1.919       .  S
O278       Ni279   1.920       .  S
Ni279       O283   1.907       .  S
Ni279       O281   1.911       .  S
O280       Ni285   1.943       .  S
C282        O283   1.266       .  A
C282        C728   1.488       .  S
O287       Ni293   1.928       .  S
O287        C308   1.269       .  A
O288       Ni311   1.896       .  S
O288        C297   1.264       .  A
O289       Ni293   1.920       .  S
O289       Ni311   1.899       .  S
O289       Ni305   1.905       .  S
O289        H312   0.967       .  S
C290        O307   1.270       .  A
C290        O299   1.273       .  A
C290        C541   1.490       .  S
O291       Ni310   1.932       .  S
O291        C297   1.271       .  A
O292       Ni310   1.899       .  S
O292        C294   1.269       .  A
Ni293       O296   1.935       .  S
Ni293       O298   1.899       .  S
C294        O304   1.279       .  A
C294        C748   1.472       .  S
O295       Ni311   1.903       .  S
O295        C301   1.271       .  A
O296        C301   1.278       .  A
C297        C508   1.485       .  S
O298        C300   1.265       .  A
O299       Ni310   1.939       .  S
C300        O306   1.269       .  A
C300       C1261   1.466       .  S
C301        C588   1.488       .  S
H302        O303   0.966       .  S
O303       Ni311   1.923       .  S
O303       Ni305   1.920       .  S
O303       Ni310   1.918       .  S
O304       Ni305   1.953       .  S
Ni305       O309   1.921       .  S
Ni305       O307   1.911       .  S
O306       Ni311   1.922       .  S
C308        O309   1.270       .  A
C308        C628   1.474       .  S
O313       Ni319   1.933       .  S
O313        C334   1.274       .  A
O314       Ni337   1.887       .  S
O314        C323   1.260       .  A
O315       Ni319   1.916       .  S
O315       Ni337   1.892       .  S
O315       Ni331   1.905       .  S
O315        H338   0.966       .  S
C316        O333   1.272       .  A
C316        O325   1.271       .  A
C316        C488   1.483       .  S
O317       Ni336   1.932       .  S
O317        C323   1.270       .  A
O318       Ni336   1.891       .  S
O318        C320   1.269       .  A
Ni319       O322   1.939       .  S
Ni319       O324   1.920       .  S
C320        O330   1.279       .  A
C320       C1361   1.479       .  S
O321       Ni337   1.903       .  S
O321        C327   1.272       .  A
O322        C327   1.280       .  A
C323        C468   1.487       .  S
O324        C326   1.269       .  A
O325       Ni336   1.919       .  S
C326        O332   1.268       .  A
C326        C608   1.498       .  S
C327        C888   1.489       .  S
H328        O329   0.967       .  S
O329       Ni337   1.919       .  S
O329       Ni331   1.928       .  S
O329       Ni336   1.922       .  S
O330       Ni331   1.952       .  S
Ni331       O335   1.927       .  S
Ni331       O333   1.914       .  S
O332       Ni337   1.918       .  S
C334        O335   1.274       .  A
C334        C828   1.489       .  S
O339       Ni345   1.930       .  S
O339        C360   1.270       .  A
O340       Ni363   1.905       .  S
O340        C349   1.267       .  A
O341       Ni345   1.909       .  S
O341       Ni363   1.908       .  S
O341       Ni357   1.902       .  S
O341        H364   0.966       .  S
C342        O359   1.274       .  A
C342        O351   1.281       .  A
C342        C501   1.484   1_554  S
O343       Ni362   1.939       .  S
O343        C349   1.274       .  A
O344       Ni362   1.911       .  S
O344        C346   1.268       .  A
Ni345       O348   1.923       .  S
Ni345       O350   1.906       .  S
C346        O356   1.267       .  A
C346        C568   1.484       .  S
O347       Ni363   1.913       .  S
O347        C353   1.274       .  A
O348        C353   1.276       .  A
C349        C521   1.478       .  S
O350        C352   1.268       .  A
O351       Ni362   1.940       .  S
C352        O358   1.274       .  A
C352        C441   1.480       .  S
C353        C481   1.481       .  S
H354        O355   0.967       .  S
O355       Ni363   1.910       .  S
O355       Ni357   1.896       .  S
O355       Ni362   1.914       .  S
O356       Ni357   1.915       .  S
Ni357       O361   1.891       .  S
Ni357       O359   1.904       .  S
O358       Ni363   1.940       .  S
C360        O361   1.262       .  A
C360       C1348   1.471   1_554  S
O365       Ni371   1.928       .  S
O365        C386   1.273       .  A
O366       Ni389   1.902       .  S
O366        C375   1.266       .  A
O367       Ni371   1.911       .  S
O367       Ni389   1.889       .  S
O367       Ni383   1.893       .  S
O367        H390   0.967       .  S
C368        O385   1.265       .  A
C368        O377   1.268       .  A
C368        C428   1.480       .  S
O369       Ni388   1.917       .  S
O369        C375   1.269       .  A
O370       Ni388   1.897       .  S
O370        C372   1.272       .  A
Ni371       O374   1.931       .  S
Ni371       O376   1.919       .  S
C372        O382   1.286       .  A
C372        C681   1.487       .  S
O373       Ni389   1.907       .  S
O373        C379   1.276       .  A
O374        C379   1.278       .  A
C375       C1048   1.488       .  S
O376        C378   1.269       .  A
O377       Ni388   1.925       .  S
C378        O384   1.268       .  A
C378        C801   1.497       .  S
C379        C768   1.482       .  S
H380        O381   0.966       .  S
O381       Ni389   1.936       .  S
O381       Ni383   1.920       .  S
O381       Ni388   1.914       .  S
O382       Ni383   1.969       .  S
Ni383       O387   1.914       .  S
Ni383       O385   1.911       .  S
O384       Ni389   1.922       .  S
C386        O387   1.269       .  A
C386        C708   1.481       .  S
O391       Ni397   1.922       .  S
O391        C412   1.269       .  A
O392       Ni415   1.930       .  S
O392        C401   1.273       .  A
O393       Ni397   1.918       .  S
O393       Ni415   1.923       .  S
O393       Ni409   1.931       .  S
O393        H416   0.964       .  S
C394        O411   1.274       .  A
C394        O403   1.278       .  A
C394        C461   1.492       .  S
O395       Ni414   1.927       .  S
O395        C401   1.270       .  A
O396       Ni414   1.911       .  S
O396        C398   1.267       .  A
Ni397       O400   1.926       .  S
Ni397       O402   1.898       .  S
C398        O408   1.271       .  A
C398        C861   1.498       .  S
O399       Ni415   1.911       .  S
O399        C405   1.268       .  A
O400        C405   1.268       .  A
C401        C448   1.489       .  S
O402        C404   1.272       .  A
O403       Ni414   1.933       .  S
C404        O410   1.285       .  A
C404       C1068   1.484       .  S
C405        C421   1.485       .  S
H406        O407   0.967       .  S
O407       Ni415   1.897       .  S
O407       Ni409   1.898       .  S
O407       Ni414   1.911       .  S
O408       Ni409   1.933       .  S
Ni409       O413   1.896       .  S
Ni409       O411   1.910       .  S
O410       Ni415   1.969       .  S
C412        O413   1.265       .  A
C412        C661   1.482       .  S
C417        C418   1.406       .  A
C417        C422   1.399   1_554  A
C417        F435   1.358       .  S
C418        C423   1.482   1_655  S
C418        C419   1.403   1_554  A
C419        C420   1.398       .  A
C419        F424   1.358       .  S
C420        C421   1.412       .  A
C420        F436   1.358       .  S
C421        C422   1.410       .  A
C422        F425   1.358       .  S
C423        C426   1.409       .  A
C423        C430   1.402   1_455  A
C426        C427   1.404       .  A
C426        F431   1.358   1_554  S
C427        C428   1.408       .  A
C427        F433   1.358       .  S
C428        C429   1.409       .  A
C429        C430   1.393   1_455  A
C429        F432   1.358   1_455  S
C430        F434   1.358       .  S
C437        C438   1.408       .  A
C437        C442   1.405       .  A
C437        F455   1.357       .  S
C438        C443   1.488   1_554  S
C438        C439   1.406   1_554  A
C439        C440   1.401   1_556  A
C439        F444   1.358       .  S
C440        C441   1.407       .  A
C440        F456   1.358   1_554  S
C441        C442   1.406       .  A
C442        F445   1.358       .  S
C443        C446   1.404   1_556  A
C443        C450   1.407       .  A
C446        C447   1.399   1_554  A
C446        F451   1.358       .  S
C447        C448   1.410       .  A
C447        F453   1.358       .  S
C448        C449   1.409       .  A
C449        C450   1.408       .  A
C449        F452   1.357       .  S
C450        F454   1.357       .  S
C457        C458   1.400       .  A
C457        C462   1.397       .  A
C457        F475   1.358       .  S
C458        C463   1.475       .  S
C458        C459   1.402       .  A
C459        C460   1.399       .  A
C459        F464   1.358       .  S
C460        C461   1.413       .  A
C460        F476   1.356       .  S
C461        C462   1.415       .  A
C462        F465   1.358       .  S
C463        C466   1.402       .  A
C463        C470   1.401       .  A
C466        C467   1.398       .  A
C466        F471   1.358       .  S
C467        C468   1.412       .  A
C467        F473   1.358       .  S
C468        C469   1.414       .  A
C469        C470   1.396       .  A
C469        F472   1.358       .  S
C470        F474   1.358       .  S
C477        C478   1.401       .  A
C477        C482   1.394       .  A
C477        F495   1.358       .  S
C478        C483   1.478       .  S
C478        C479   1.406       .  A
C479        C480   1.402       .  A
C479        F484   1.358       .  S
C480        C481   1.410       .  A
C480        F496   1.358       .  S
C481        C482   1.410       .  A
C482        F485   1.358       .  S
C483        C486   1.405       .  A
C483        C490   1.402       .  A
C486        C487   1.398       .  A
C486        F491   1.358       .  S
C487        C488   1.407       .  A
C487        F493   1.357       .  S
C488        C489   1.412       .  A
C489        C490   1.399       .  A
C489        F492   1.358       .  S
C490        F494   1.358       .  S
C497        C498   1.402       .  A
C497        C502   1.396       .  A
C497        F515   1.358       .  S
C498        C503   1.480       .  S
C498        C499   1.406       .  A
C499        C500   1.403       .  A
C499        F504   1.358       .  S
C500        C501   1.410       .  A
C500        F516   1.358   1_556  S
C501        C502   1.410       .  A
C502        F505   1.358       .  S
C503        C506   1.403       .  A
C503        C510   1.404       .  A
C506        C507   1.398       .  A
C506        F511   1.358       .  S
C507        C508   1.410       .  A
C507        F513   1.358       .  S
C508        C509   1.411       .  A
C509        C510   1.402       .  A
C509        F512   1.358       .  S
C510        F514   1.358       .  S
C517        C518   1.405       .  A
C517        C522   1.398       .  A
C517        F535   1.358       .  S
C518        C523   1.483       .  S
C518        C519   1.407       .  A
C519        C520   1.402       .  A
C519        F524   1.358       .  S
C520        C521   1.407       .  A
C520        F536   1.358       .  S
C521        C522   1.406       .  A
C522        F525   1.358       .  S
C523        C526   1.407       .  A
C523        C530   1.405       .  A
C526        C527   1.407       .  A
C526        F531   1.358       .  S
C527        C528   1.409       .  A
C527        F533   1.358       .  S
C528        C529   1.405       .  A
C529        C530   1.396       .  A
C529        F532   1.358       .  S
C530        F534   1.358       .  S
C537        C538   1.409       .  A
C537        C542   1.401       .  A
C537        F555   1.358       .  S
C538        C543   1.495       .  S
C538        C539   1.408       .  A
C539        C540   1.403       .  A
C539        F544   1.358       .  S
C540        C541   1.412       .  A
C540        F556   1.358       .  S
C541        C542   1.408       .  A
C542        F545   1.358       .  S
C543        C546   1.404       .  A
C543        C550   1.409       .  A
C546        C547   1.398       .  A
C546        F551   1.358       .  S
C547        C548   1.416       .  A
C547        F553   1.358       .  S
C548        C549   1.414       .  A
C549        C550   1.407       .  A
C549        F552   1.358       .  S
C550        F554   1.358       .  S
C557        C558   1.406       .  A
C557        C562   1.402       .  A
C557        F575   1.358       .  S
C558        C563   1.484       .  S
C558        C559   1.404       .  A
C559        C560   1.394       .  A
C559        F564   1.358       .  S
C560        C561   1.412       .  A
C560        F576   1.358       .  S
C561        C562   1.414       .  A
C562        F565   1.358       .  S
C563        C566   1.406       .  A
C563        C570   1.406       .  A
C566        C567   1.397       .  A
C566        F571   1.358       .  S
C567        C568   1.410       .  A
C567        F573   1.358       .  S
C568        C569   1.410       .  A
C569        C570   1.399       .  A
C569        F572   1.358       .  S
C570        F574   1.358       .  S
C577        C578   1.404       .  A
C577        C582   1.401       .  A
C577        F595   1.358       .  S
C578        C583   1.482       .  S
C578        C579   1.402       .  A
C579        C580   1.398       .  A
C579        F584   1.358       .  S
C580        C581   1.414       .  A
C580        F596   1.358       .  S
C581        C582   1.414       .  A
C582        F585   1.358       .  S
C583        C586   1.405       .  A
C583        C590   1.403       .  A
C586        C587   1.400       .  A
C586        F591   1.358       .  S
C587        C588   1.410       .  A
C587        F593   1.358       .  S
C588        C589   1.413       .  A
C589        C590   1.398       .  A
C589        F592   1.358       .  S
C590        F594   1.358       .  S
C597        C598   1.404       .  A
C597        C602   1.404       .  A
C597        F615   1.358   1_455  S
C598        C603   1.485   1_455  S
C598        C599   1.403       .  A
C599        C600   1.402       .  A
C599        F604   1.358       .  S
C600        C601   1.414       .  A
C600        F616   1.358       .  S
C601        C602   1.413       .  A
C602        F605   1.357       .  S
C603        C606   1.405       .  A
C603        C610   1.401       .  A
C606        C607   1.407       .  A
C606        F611   1.357   1_655  S
C607        C608   1.415       .  A
C607        F613   1.358       .  S
C608        C609   1.415       .  A
C609        C610   1.397       .  A
C609        F612   1.358       .  S
C610        F614   1.358       .  S
C617        C618   1.409       .  A
C617        C622   1.399       .  A
C617        F635   1.358       .  S
C618        C623   1.489       .  S
C618        C619   1.408       .  A
C619        C620   1.402       .  A
C619        F624   1.357       .  S
C620        C621   1.406       .  A
C620        F636   1.358       .  S
C621        C622   1.406       .  A
C622        F625   1.359       .  S
C623        C626   1.409       .  A
C623        C630   1.408       .  A
C626        C627   1.400       .  A
C626        F631   1.358       .  S
C627        C628   1.405       .  A
C627        F633   1.358       .  S
C628        C629   1.404       .  A
C629        C630   1.401       .  A
C629        F632   1.358       .  S
C630        F634   1.358       .  S
C637        C638   1.405       .  A
C637        C642   1.397       .  A
C637        F655   1.358       .  S
C638        C643   1.474       .  S
C638        C639   1.402       .  A
C639        C640   1.395       .  A
C639        F644   1.359       .  S
C640        C641   1.412       .  A
C640        F656   1.358       .  S
C641        C642   1.405       .  A
C642        F645   1.357       .  S
C643        C646   1.404       .  A
C643        C650   1.404       .  A
C646        C647   1.396       .  A
C646        F651   1.358       .  S
C647        C648   1.406       .  A
C647        F653   1.358       .  S
C648        C649   1.406       .  A
C649        C650   1.396       .  A
C649        F652   1.358       .  S
C650        F654   1.358       .  S
C657        C658   1.402   1_655  A
C657        C662   1.394       .  A
C657        F675   1.358       .  S
C658        C663   1.474       .  S
C658        C659   1.403       .  A
C659        C660   1.399       .  A
C659        F664   1.358       .  S
C660        C661   1.411   1_455  A
C660        F676   1.358       .  S
C661        C662   1.409       .  A
C662        F665   1.356       .  S
C663        C666   1.400       .  A
C663        C670   1.403       .  A
C666        C667   1.394       .  A
C666        F671   1.358       .  S
C667        C668   1.413       .  A
C667        F673   1.358       .  S
C668        C669   1.414       .  A
C669        C670   1.399       .  A
C669        F672   1.358       .  S
C670        F674   1.358       .  S
C677        C678   1.406       .  A
C677        C682   1.406       .  A
C677        F695   1.357       .  S
C678        C683   1.484       .  S
C678        C679   1.403       .  A
C679        C680   1.399       .  A
C679        F684   1.358       .  S
C680        C681   1.410       .  A
C680        F696   1.358       .  S
C681        C682   1.410       .  A
C682        F685   1.358       .  S
C683        C686   1.407       .  A
C683        C690   1.403       .  A
C686        C687   1.407       .  A
C686        F691   1.358       .  S
C687        C688   1.409       .  A
C687        F693   1.358       .  S
C688        C689   1.407       .  A
C689        C690   1.398       .  A
C689        F692   1.358       .  S
C690        F694   1.358       .  S
C697        C698   1.406       .  A
C697        C702   1.397       .  A
C697        F715   1.358       .  S
C698        C703   1.483       .  S
C698        C699   1.408   1_554  A
C699        C700   1.403       .  A
C699        F704   1.358       .  S
C700        C701   1.406       .  A
C700        F716   1.358       .  S
C701        C702   1.404   1_556  A
C702        F705   1.358       .  S
C703        C706   1.404       .  A
C703        C710   1.407       .  A
C706        C707   1.395       .  A
C706        F711   1.358       .  S
C707        C708   1.407       .  A
C707        F713   1.358       .  S
C708        C709   1.409       .  A
C709        C710   1.405       .  A
C709        F712   1.358       .  S
C710        F714   1.358       .  S
C717        C718   1.411       .  A
C717        C722   1.403       .  A
C717        F735   1.357       .  S
C718        C723   1.494       .  S
C718        C719   1.410       .  A
C719        C720   1.399       .  A
C719        F724   1.358       .  S
C720        C721   1.405       .  A
C720        F736   1.359       .  S
C721        C722   1.402       .  A
C722        F725   1.357       .  S
C723        C726   1.410       .  A
C723        C730   1.408       .  A
C726        C727   1.404       .  A
C726        F731   1.358       .  S
C727        C728   1.409       .  A
C727        F733   1.358       .  S
C728        C729   1.408       .  A
C729        C730   1.400       .  A
C729        F732   1.358       .  S
C730        F734   1.358       .  S
C737        C738   1.404       .  A
C737        C742   1.397       .  A
C737        F755   1.358       .  S
C738        C743   1.480       .  S
C738        C739   1.404       .  A
C739        C740   1.403       .  A
C739        F744   1.357       .  S
C740        C741   1.409       .  A
C740        F756   1.357       .  S
C741        C742   1.410       .  A
C742        F745   1.358       .  S
C743        C746   1.406       .  A
C743        C750   1.405       .  A
C746        C747   1.399       .  A
C746        F751   1.358       .  S
C747        C748   1.406       .  A
C747        F753   1.358       .  S
C748        C749   1.405       .  A
C749        C750   1.400       .  A
C749        F752   1.358       .  S
C750        F754   1.357       .  S
C757        C758   1.399       .  A
C757        C762   1.397       .  A
C757        F775   1.358       .  S
C758        C763   1.471       .  S
C758        C759   1.402       .  A
C759        C760   1.398       .  A
C759        F764   1.358       .  S
C760        C761   1.412       .  A
C760        F776   1.358       .  S
C761        C762   1.414       .  A
C762        F765   1.358       .  S
C763        C766   1.402       .  A
C763        C770   1.400       .  A
C766        C767   1.397       .  A
C766        F771   1.358       .  S
C767        C768   1.410       .  A
C767        F773   1.358       .  S
C768        C769   1.413       .  A
C769        C770   1.397       .  A
C769        F772   1.358       .  S
C770        F774   1.358       .  S
C777        C778   1.406       .  A
C777        C782   1.402       .  A
C777        F795   1.358       .  S
C778        C783   1.476       .  S
C778        C779   1.401       .  A
C779        C780   1.392       .  A
C779        F784   1.358       .  S
C780        C781   1.411       .  A
C780        F796   1.358       .  S
C781        C782   1.409       .  A
C782        F785   1.358       .  S
C783        C786   1.403       .  A
C783        C790   1.404       .  A
C786        C787   1.397       .  A
C786        F791   1.358       .  S
C787        C788   1.410       .  A
C787        F793   1.358       .  S
C788        C789   1.409       .  A
C789        C790   1.396       .  A
C789        F792   1.358       .  S
C790        F794   1.358       .  S
C797        C798   1.401   1_655  A
C797        C802   1.397   1_655  A
C797        F815   1.358       .  S
C798        C803   1.482   1_455  S
C798        C799   1.404       .  A
C799        C800   1.405       .  A
C799        F804   1.358       .  S
C800        C801   1.414       .  A
C800        F816   1.357       .  S
C801        C802   1.416       .  A
C802        F805   1.358       .  S
C803        C806   1.404       .  A
C803        C810   1.405       .  A
C806        C807   1.399       .  A
C806        F811   1.358   1_655  S
C807        C808   1.412       .  A
C807        F813   1.358       .  S
C808        C809   1.410       .  A
C809        C810   1.400       .  A
C809        F812   1.358       .  S
C810        F814   1.358       .  S
C817        C818   1.405   1_565  A
C817        C822   1.401       .  A
C817        F835   1.358       .  S
C818        C823   1.491       .  S
C818        C819   1.409       .  A
C819        C820   1.409   1_545  A
C819        F824   1.358       .  S
C820        C821   1.409       .  A
C820        F836   1.357       .  S
C821        C822   1.409       .  A
C822        F825   1.358       .  S
C823        C826   1.404       .  A
C823        C830   1.409       .  A
C826        C827   1.400       .  A
C826        F831   1.358       .  S
C827        C828   1.409       .  A
C827        F833   1.358       .  S
C828        C829   1.409       .  A
C829        C830   1.409       .  A
C829        F832   1.358       .  S
C830        F834   1.357       .  S
C837        C838   1.402       .  A
C837        C842   1.395       .  A
C837        F855   1.358       .  S
C838        C843   1.484       .  S
C838        C839   1.407       .  A
C839        C840   1.401       .  A
C839        F844   1.358       .  S
C840        C841   1.412       .  A
C840        F856   1.358       .  S
C841        C842   1.415       .  A
C842        F845   1.358       .  S
C843        C846   1.408       .  A
C843        C850   1.403       .  A
C846        C847   1.400   1_455  A
C846        F851   1.358       .  S
C847        C848   1.411       .  A
C847        F853   1.359       .  S
C848        C849   1.409       .  A
C849        C850   1.396   1_655  A
C849        F852   1.357       .  S
C850        F854   1.358       .  S
C857        C858   1.404       .  A
C857        C862   1.403       .  A
C857        F875   1.358       .  S
C858        C863   1.486   1_655  S
C858        C859   1.403       .  A
C859        C860   1.401       .  A
C859        F864   1.358   1_655  S
C860        C861   1.414       .  A
C860        F876   1.358       .  S
C861        C862   1.415       .  A
C862        F865   1.358       .  S
C863        C866   1.403   1_455  A
C863        C870   1.404       .  A
C866        C867   1.400   1_655  A
C866        F871   1.358       .  S
C867        C868   1.414       .  A
C867        F873   1.358       .  S
C868        C869   1.414       .  A
C869        C870   1.403       .  A
C869        F872   1.358       .  S
C870        F874   1.358       .  S
C877        C878   1.405       .  A
C877        C882   1.398   1_655  A
C877        F895   1.358       .  S
C878        C883   1.483       .  S
C878        C879   1.403       .  A
C879        C880   1.399       .  A
C879        F884   1.358       .  S
C880        C881   1.414   1_655  A
C880        F896   1.358       .  S
C881        C882   1.410       .  A
C882        F885   1.358       .  S
C883        C886   1.405       .  A
C883        C890   1.403       .  A
C886        C887   1.401       .  A
C886        F891   1.358       .  S
C887        C888   1.411       .  A
C887        F893   1.357       .  S
C888        C889   1.413       .  A
C889        C890   1.396       .  A
C889        F892   1.358       .  S
C890        F894   1.359       .  S
C897        C898   1.407       .  A
C897        C902   1.404       .  A
C897        F915   1.358       .  S
C898        C903   1.489       .  S
C898        C899   1.407       .  A
C899        C900   1.401   1_565  A
C899        F904   1.358       .  S
C900        C901   1.407       .  A
C900        F916   1.358       .  S
C901        C902   1.407   1_545  A
C902        F905   1.357       .  S
C903        C906   1.407       .  A
C903        C910   1.408       .  A
C906        C907   1.398       .  A
C906        F911   1.358       .  S
C907        C908   1.406       .  A
C907        F913   1.358       .  S
C908        C909   1.409       .  A
C909        C910   1.405       .  A
C909        F912   1.358       .  S
C910        F914   1.357       .  S
C917        C918   1.404   1_544  A
C917        C922   1.395   1_554  A
C917        F935   1.358       .  S
C918        C923   1.475   1_456  S
C918        C919   1.403       .  A
C919        C920   1.397       .  A
C919        F924   1.358   1_455  S
C920        C921   1.410   1_565  A
C920        F936   1.358       .  S
C921        C922   1.409       .  A
C922        F925   1.358       .  S
C923        C926   1.406       .  A
C923        C930   1.401   1_655  A
C926        C927   1.400       .  A
C926        F931   1.358   1_554  S
C927        C928   1.408       .  A
C927        F933   1.358       .  S
C928        C929   1.411       .  A
C929        C930   1.392   1_655  A
C929        F932   1.358   1_655  S
C930        F934   1.358       .  S
C937        C938   1.403       .  A
C937        C942   1.401       .  A
C937        F955   1.358       .  S
C938        C943   1.475       .  S
C938        C939   1.401       .  A
C939        C940   1.396       .  A
C939        F944   1.358       .  S
C940        C941   1.410       .  A
C940        F956   1.358       .  S
C941        C942   1.411       .  A
C942        F945   1.358       .  S
C943        C946   1.400       .  A
C943        C950   1.401       .  A
C946        C947   1.399       .  A
C946        F951   1.358       .  S
C947        C948   1.414       .  A
C947        F953   1.358       .  S
C948        C949   1.415       .  A
C949        C950   1.398       .  A
C949        F952   1.358       .  S
C950        F954   1.358       .  S
C957        C958   1.407   1_556  A
C957        C962   1.406       .  A
C957        F975   1.357       .  S
C958        C963   1.485       .  S
C958        C959   1.403       .  A
C959        C960   1.396   1_554  A
C959        F964   1.358       .  S
C960        C961   1.410       .  A
C960        F976   1.358       .  S
C961        C962   1.411       .  A
C962        F965   1.358       .  S
C963        C966   1.407       .  A
C963        C970   1.406       .  A
C966        C967   1.401       .  A
C966        F971   1.358   1_554  S
C967        C968   1.406       .  A
C967        F973   1.358   1_554  S
C968        C969   1.407       .  A
C969        C970   1.403       .  A
C969        F972   1.358       .  S
C970        F974   1.358       .  S
C977        C978   1.405       .  A
C977        C982   1.405       .  A
C977        F995   1.358   1_655  S
C978        C983   1.488   1_655  S
C978        C979   1.404       .  A
C979        C980   1.399       .  A
C979        F984   1.358       .  S
C980        C981   1.412       .  A
C980        F996   1.357       .  S
C981        C982   1.417       .  A
C982        F985   1.358       .  S
C983        C986   1.404       .  A
C983        C990   1.406       .  A
C986        C987   1.400       .  A
C986        F991   1.358       .  S
C987        C988   1.414       .  A
C987        F993   1.358       .  S
C988        C989   1.413       .  A
C989        C990   1.403       .  A
C989        F992   1.358       .  S
C990        F994   1.358   1_455  S
C997        C998   1.405       .  A
C997       C1002   1.398       .  A
C997       F1015   1.358       .  S
C998       C1003   1.485       .  S
C998        C999   1.407       .  A
C999       C1000   1.404       .  A
C999       F1004   1.358       .  S
C1000      C1001   1.408       .  A
C1000      F1016   1.358       .  S
C1001      C1002   1.406       .  A
C1002      F1005   1.358       .  S
C1003      C1006   1.407       .  A
C1003      C1010   1.405       .  A
C1006      C1007   1.404       .  A
C1006      F1011   1.358       .  S
C1007      C1008   1.408       .  A
C1007      F1013   1.358       .  S
C1008      C1009   1.409       .  A
C1009      C1010   1.398       .  A
C1009      F1012   1.358       .  S
C1010      F1014   1.358       .  S
C1017      C1018   1.403       .  A
C1017      C1022   1.402       .  A
C1017      F1035   1.358       .  S
C1018      C1023   1.481       .  S
C1018      C1019   1.404       .  A
C1019      C1020   1.401       .  A
C1019      F1024   1.358       .  S
C1020      C1021   1.410       .  A
C1020      F1036   1.358       .  S
C1021      C1022   1.410       .  A
C1022      F1025   1.358       .  S
C1023      C1026   1.402       .  A
C1023      C1030   1.401       .  A
C1026      C1027   1.401       .  A
C1026      F1031   1.358       .  S
C1027      C1028   1.413       .  A
C1027      F1033   1.357       .  S
C1028      C1029   1.417       .  A
C1029      C1030   1.403       .  A
C1029      F1032   1.358       .  S
C1030      F1034   1.358       .  S
C1037      C1038   1.402       .  A
C1037      C1042   1.399       .  A
C1037      F1055   1.358       .  S
C1038      C1043   1.473       .  S
C1038      C1039   1.400       .  A
C1039      C1040   1.395       .  A
C1039      F1044   1.358       .  S
C1040      C1041   1.413       .  A
C1040      F1056   1.358       .  S
C1041      C1042   1.413       .  A
C1042      F1045   1.358       .  S
C1043      C1046   1.400       .  A
C1043      C1050   1.401       .  A
C1046      C1047   1.397       .  A
C1046      F1051   1.358       .  S
C1047      C1048   1.414   1_655  A
C1047      F1053   1.358       .  S
C1048      C1049   1.413       .  A
C1049      C1050   1.398   1_455  A
C1049      F1052   1.358       .  S
C1050      F1054   1.358       .  S
C1057      C1058   1.406       .  A
C1057      C1062   1.406       .  A
C1057      F1075   1.357       .  S
C1058      C1063   1.482       .  S
C1058      C1059   1.403       .  A
C1059      C1060   1.397       .  A
C1059      F1064   1.358       .  S
C1060      C1061   1.409       .  A
C1060      F1076   1.358       .  S
C1061      C1062   1.410       .  A
C1062      F1065   1.358       .  S
C1063      C1066   1.403       .  A
C1063      C1070   1.406       .  A
C1066      C1067   1.398       .  A
C1066      F1071   1.358       .  S
C1067      C1068   1.409       .  A
C1067      F1073   1.358       .  S
C1068      C1069   1.409       .  A
C1069      C1070   1.406       .  A
C1069      F1072   1.358       .  S
C1070      F1074   1.358       .  S
C1077      C1078   1.402       .  A
C1077      C1082   1.396       .  A
C1077      F1095   1.359       .  S
C1078      C1083   1.474       .  S
C1078      C1079   1.401       .  A
C1079      C1080   1.399       .  A
C1079      F1084   1.358       .  S
C1080      C1081   1.413       .  A
C1080      F1096   1.358       .  S
C1081      C1082   1.412       .  A
C1082      F1085   1.358       .  S
C1083      C1086   1.401       .  A
C1083      C1090   1.402       .  A
C1086      C1087   1.396       .  A
C1086      F1091   1.358       .  S
C1087      C1088   1.413       .  A
C1087      F1093   1.358       .  S
C1088      C1089   1.411       .  A
C1089      C1090   1.398       .  A
C1089      F1092   1.358       .  S
C1090      F1094   1.358       .  S
C1097      C1098   1.400       .  A
C1097      C1102   1.399       .  A
C1097      F1115   1.358       .  S
C1098      C1103   1.478       .  S
C1098      C1099   1.405       .  A
C1099      C1100   1.400       .  A
C1099      F1104   1.358       .  S
C1100      C1101   1.411       .  A
C1100      F1116   1.358       .  S
C1101      C1102   1.413       .  A
C1102      F1105   1.358       .  S
C1103      C1106   1.404       .  A
C1103      C1110   1.399       .  A
C1106      C1107   1.405       .  A
C1106      F1111   1.358       .  S
C1107      C1108   1.417       .  A
C1107      F1113   1.358       .  S
C1108      C1109   1.414       .  A
C1109      C1110   1.394       .  A
C1109      F1112   1.357       .  S
C1110      F1114   1.358       .  S
C1117      C1118   1.407       .  A
C1117      C1122   1.406       .  A
C1117      F1135   1.357       .  S
C1118      C1123   1.487       .  S
C1118      C1119   1.404       .  A
C1119      C1120   1.401       .  A
C1119      F1124   1.358       .  S
C1120      C1121   1.411       .  A
C1120      F1136   1.358       .  S
C1121      C1122   1.408       .  A
C1122      F1125   1.357       .  S
C1123      C1126   1.408   1_554  A
C1123      C1130   1.406       .  A
C1126      C1127   1.406       .  A
C1126      F1131   1.357       .  S
C1127      C1128   1.405       .  A
C1127      F1133   1.358       .  S
C1128      C1129   1.405   1_556  A
C1129      C1130   1.398       .  A
C1129      F1132   1.359       .  S
C1130      F1134   1.358       .  S
C1137      C1138   1.403       .  A
C1137      C1142   1.395       .  A
C1137      F1155   1.358       .  S
C1138      C1143   1.476       .  S
C1138      C1139   1.407       .  A
C1139      C1140   1.400       .  A
C1139      F1144   1.358       .  S
C1140      C1141   1.404       .  A
C1140      F1156   1.358       .  S
C1141      C1142   1.407       .  A
C1142      F1145   1.358       .  S
C1143      C1146   1.399       .  A
C1143      C1150   1.405       .  A
C1146      C1147   1.395       .  A
C1146      F1151   1.358       .  S
C1147      C1148   1.415       .  A
C1147      F1153   1.358       .  S
C1148      C1149   1.412       .  A
C1149      C1150   1.400       .  A
C1149      F1152   1.358       .  S
C1150      F1154   1.358       .  S
C1157      C1158   1.405       .  A
C1157      C1162   1.400       .  A
C1157      F1175   1.358       .  S
C1158      C1163   1.487       .  S
C1158      C1159   1.404       .  A
C1159      C1160   1.400       .  A
C1159      F1164   1.358       .  S
C1160      C1161   1.412       .  A
C1160      F1176   1.357       .  S
C1161      C1162   1.415       .  A
C1162      F1165   1.358       .  S
C1163      C1166   1.405       .  A
C1163      C1170   1.405       .  A
C1166      C1167   1.402       .  A
C1166      F1171   1.358       .  S
C1167      C1168   1.411       .  A
C1167      F1173   1.357       .  S
C1168      C1169   1.411       .  A
C1169      C1170   1.399       .  A
C1169      F1172   1.358       .  S
C1170      F1174   1.358       .  S
C1177      C1178   1.406   1_565  A
C1177      C1182   1.403       .  A
C1177      F1195   1.358       .  S
C1178      C1183   1.490       .  S
C1178      C1179   1.407       .  A
C1179      C1180   1.406   1_545  A
C1179      F1184   1.357       .  S
C1180      C1181   1.408       .  A
C1180      F1196   1.358       .  S
C1181      C1182   1.408       .  A
C1182      F1185   1.358       .  S
C1183      C1186   1.408       .  A
C1183      C1190   1.404       .  A
C1186      C1187   1.409       .  A
C1186      F1191   1.357       .  S
C1187      C1188   1.409       .  A
C1187      F1193   1.357       .  S
C1188      C1189   1.410       .  A
C1189      C1190   1.399       .  A
C1189      F1192   1.358       .  S
C1190      F1194   1.358       .  S
C1197      C1198   1.403       .  A
C1197      C1202   1.394       .  A
C1197      F1215   1.358       .  S
C1198      C1203   1.472       .  S
C1198      C1199   1.404       .  A
C1199      C1200   1.397       .  A
C1199      F1204   1.358       .  S
C1200      C1201   1.407       .  A
C1200      F1216   1.358       .  S
C1201      C1202   1.406       .  A
C1202      F1205   1.358       .  S
C1203      C1206   1.401       .  A
C1203      C1210   1.401       .  A
C1206      C1207   1.395       .  A
C1206      F1211   1.358       .  S
C1207      C1208   1.414       .  A
C1207      F1213   1.358       .  S
C1208      C1209   1.415       .  A
C1209      C1210   1.398       .  A
C1209      F1212   1.358       .  S
C1210      F1214   1.358       .  S
C1217      C1218   1.403       .  A
C1217      C1222   1.399       .  A
C1217      F1235   1.358       .  S
C1218      C1223   1.475       .  S
C1218      C1219   1.402       .  A
C1219      C1220   1.396       .  A
C1219      F1224   1.358       .  S
C1220      C1221   1.409       .  A
C1220      F1236   1.358       .  S
C1221      C1222   1.412       .  A
C1222      F1225   1.358       .  S
C1223      C1226   1.402       .  A
C1223      C1230   1.404       .  A
C1226      C1227   1.394       .  A
C1226      F1231   1.358       .  S
C1227      C1228   1.407       .  A
C1227      F1233   1.358       .  S
C1228      C1229   1.412       .  A
C1229      C1230   1.401       .  A
C1229      F1232   1.358       .  S
C1230      F1234   1.358       .  S
C1237      C1238   1.406       .  A
C1237      C1242   1.402       .  A
C1237      F1255   1.357       .  S
C1238      C1243   1.480       .  S
C1238      C1239   1.405       .  A
C1239      C1240   1.399       .  A
C1239      F1244   1.358       .  S
C1240      C1241   1.405       .  A
C1240      F1256   1.358       .  S
C1241      C1242   1.404       .  A
C1242      F1245   1.358       .  S
C1243      C1246   1.402       .  A
C1243      C1250   1.403       .  A
C1246      C1247   1.396       .  A
C1246      F1251   1.359       .  S
C1247      C1248   1.413       .  A
C1247      F1253   1.358       .  S
C1248      C1249   1.413       .  A
C1249      C1250   1.406       .  A
C1249      F1252   1.357       .  S
C1250      F1254   1.357       .  S
C1257      C1258   1.408       .  A
C1257      C1262   1.395       .  A
C1257      F1275   1.358       .  S
C1258      C1263   1.482       .  S
C1258      C1259   1.408       .  A
C1259      C1260   1.399       .  A
C1259      F1264   1.358       .  S
C1260      C1261   1.403       .  A
C1260      F1276   1.358       .  S
C1261      C1262   1.402       .  A
C1262      F1265   1.358       .  S
C1263      C1266   1.408       .  A
C1263      C1270   1.407       .  A
C1266      C1267   1.399       .  A
C1266      F1271   1.358       .  S
C1267      C1268   1.404       .  A
C1267      F1273   1.358       .  S
C1268      C1269   1.404       .  A
C1269      C1270   1.396       .  A
C1269      F1272   1.358       .  S
C1270      F1274   1.358       .  S
C1277      C1278   1.400       .  A
C1277      C1282   1.399       .  A
C1277      F1295   1.358       .  S
C1278      C1283   1.477       .  S
C1278      C1279   1.402       .  A
C1279      C1280   1.400       .  A
C1279      F1284   1.358       .  S
C1280      C1281   1.413       .  A
C1280      F1296   1.358       .  S
C1281      C1282   1.414       .  A
C1282      F1285   1.358       .  S
C1283      C1286   1.403       .  A
C1283      C1290   1.402       .  A
C1286      C1287   1.400       .  A
C1286      F1291   1.358       .  S
C1287      C1288   1.408       .  A
C1287      F1293   1.357   1_556  S
C1288      C1289   1.411       .  A
C1289      C1290   1.399       .  A
C1289      F1292   1.358       .  S
C1290      F1294   1.358       .  S
C1297      C1298   1.406       .  A
C1297      C1302   1.408       .  A
C1297      F1315   1.357       .  S
C1298      C1303   1.481       .  S
C1298      C1299   1.402       .  A
C1299      C1300   1.396       .  A
C1299      F1304   1.358       .  S
C1300      C1301   1.409   1_565  A
C1300      F1316   1.358   1_565  S
C1301      C1302   1.410   1_545  A
C1302      F1305   1.357       .  S
C1303      C1306   1.405       .  A
C1303      C1310   1.402       .  A
C1306      C1307   1.407       .  A
C1306      F1311   1.357       .  S
C1307      C1308   1.410       .  A
C1307      F1313   1.357       .  S
C1308      C1309   1.411       .  A
C1309      C1310   1.397       .  A
C1309      F1312   1.358       .  S
C1310      F1314   1.358       .  S
C1317      C1318   1.402       .  A
C1317      C1322   1.399       .  A
C1317      F1335   1.358   1_565  S
C1318      C1323   1.478       .  S
C1318      C1319   1.404       .  A
C1319      C1320   1.397       .  A
C1319      F1324   1.358       .  S
C1320      C1321   1.410       .  A
C1320      F1336   1.358       .  S
C1321      C1322   1.412       .  A
C1322      F1325   1.358       .  S
C1323      C1326   1.399   1_565  A
C1323      C1330   1.408   1_565  A
C1326      C1327   1.392       .  A
C1326      F1331   1.358   1_545  S
C1327      C1328   1.413       .  A
C1327      F1333   1.358       .  S
C1328      C1329   1.408       .  A
C1329      C1330   1.403       .  A
C1329      F1332   1.358       .  S
C1330      F1334   1.358   1_545  S
C1337      C1338   1.406       .  A
C1337      C1342   1.396       .  A
C1337      F1355   1.358       .  S
C1338      C1343   1.476       .  S
C1338      C1339   1.406       .  A
C1339      C1340   1.394       .  A
C1339      F1344   1.358       .  S
C1340      C1341   1.405       .  A
C1340      F1356   1.359       .  S
C1341      C1342   1.402       .  A
C1342      F1345   1.358       .  S
C1343      C1346   1.406       .  A
C1343      C1350   1.405       .  A
C1346      C1347   1.396       .  A
C1346      F1351   1.358       .  S
C1347      C1348   1.406       .  A
C1347      F1353   1.358       .  S
C1348      C1349   1.407       .  A
C1349      C1350   1.394       .  A
C1349      F1352   1.358   1_556  S
C1350      F1354   1.358       .  S
C1357      C1358   1.402       .  A
C1357      C1362   1.395       .  A
C1357      F1375   1.358       .  S
C1358      C1363   1.478       .  S
C1358      C1359   1.406       .  A
C1359      C1360   1.406       .  A
C1359      F1364   1.357       .  S
C1360      C1361   1.408       .  A
C1360      F1376   1.357       .  S
C1361      C1362   1.408       .  A
C1362      F1365   1.359       .  S
C1363      C1366   1.401       .  A
C1363      C1370   1.404       .  A
C1366      C1367   1.394       .  A
C1366      F1371   1.359       .  S
C1367      C1368   1.413       .  A
C1367      F1373   1.358       .  S
C1368      C1369   1.411       .  A
C1369      C1370   1.406       .  A
C1369      F1372   1.357       .  S
C1370      F1374   1.357       .  S
