geometry optimzed in LAMMPS
_audit_creation_date              2020-12-01 
_audit_creation_method            'lammps2cif' 
_symmetry_space_group_name_H-M    'P1' 
_symmetry_Int_Tables_number       1 
_symmetry_cell_setting            triclinic 
loop_ 
_symmetry_equiv_pos_as_xyz 
  x,y,z 
_cell_length_a                    74.5455137 
_cell_length_b                    74.36106410621731 
_cell_length_c                    31.011828957466257 
_cell_angle_alpha                 90.18495469149782 
_cell_angle_beta                  90.04433737558506 
_cell_angle_gamma                 120.29983756452259 
loop_ 
_atom_site_label 
_atom_site_type_symbol 
_atom_site_fract_x 
_atom_site_fract_y 
_atom_site_fract_z 
_atom_site_charge 
O1          O  0.31857837  0.87737185  0.43465340    -0.85800
O2          O  0.30001314  0.85349754  0.50579982    -0.82800
C3          C  0.29890672  0.83632450  0.49615278     0.97700
O4          O  0.31523900  0.83514555  0.49505265    -0.82800
O5          O  0.35740389  0.84743188  0.49039734    -0.85500
C6          C  0.36296268  0.85165895  0.45148679     1.02200
O7          O  0.36070876  0.86525356  0.43209859    -0.78200
O8          O  0.35152303  0.89641237  0.41734246    -0.78400
C9          C  0.33253058  0.88654160  0.40664108     1.02200
O10         O  0.34302621  0.91403985  0.48792564    -0.85800
O11         O  0.32802007  0.88899164  0.56023559    -0.82800
C12         C  0.32465028  0.87483500  0.58686223     0.97700
O13         O  0.32300818  0.85795802  0.57380772    -0.82800
O14         O  0.36507275  0.87346452  0.56330928    -0.85500
C15         C  0.38289659  0.88317967  0.54645203     1.02200
O16         O  0.38488790  0.88742351  0.50657061    -0.78300
O17         O  0.37329476  0.91641102  0.49549156    -0.78400
C18         C  0.36242392  0.92497365  0.49479903     1.02200
Cr19       Cr  0.32378958  0.88300393  0.49725266     1.93700
Cr20       Cr  0.34025886  0.85496071  0.52809439     1.93200
Cr21       Cr  0.36583093  0.89032133  0.46508449     1.39100
O22         O  0.34329597  0.87608536  0.49653005    -1.23500
O23         O  0.31843862  0.87879832  0.93386131    -0.85800
O24         O  0.29830094  0.85333552  0.00235179    -0.82800
C25         C  0.29818004  0.83666525  0.99250920     0.97700
O26         O  0.31492000  0.83626978  0.99284242    -0.82800
O27         O  0.35724657  0.84981476  0.99091329    -0.85500
C28         C  0.36348777  0.85501447  0.95251877     1.02200
O29         O  0.36136949  0.86895540  0.93423846    -0.78200
O30         O  0.35157684  0.89980301  0.92124669    -0.78400
C31         C  0.33307005  0.88909717  0.90780125     1.02200
O32         O  0.34038042  0.91452960  0.99072021    -0.85800
O33         O  0.32392306  0.88807638  0.06036624    -0.82800
C34         C  0.32073373  0.87380047  0.08651977     0.97700
O35         O  0.32023964  0.85746984  0.07317415    -0.82800
O36         O  0.36266187  0.87423966  0.06619423    -0.85500
C37         C  0.38070988  0.88415296  0.05056410     1.02200
O38         O  0.38339137  0.88932817  0.01125590    -0.78300
O39         O  0.37075159  0.91768745  0.00275555    -0.78400
C40         C  0.35936855  0.92566652  0.00117401     1.02200
Cr41       Cr  0.32163842  0.88327849  0.99699547     1.93700
Cr42       Cr  0.33884819  0.85592704  0.02841315     1.93200
Cr43       Cr  0.36498805  0.89284900  0.96939286     1.39100
O44         O  0.34180887  0.87731385  0.99807042    -1.23500
O45         O  0.44189714  0.12906523  0.07998281    -0.85800
O46         O  0.44631902  0.15400712  0.01036171    -0.82800
C47         C  0.46293388  0.17097377  0.01893168     0.97700
O48         O  0.48019748  0.17162004  0.01850926    -0.82800
O49         O  0.50962432  0.15884994  0.01974439    -0.85500
C50         C  0.51097209  0.15394773  0.05825099     1.02200
O51         O  0.49509096  0.13988172  0.07683207    -0.78200
O52         O  0.45485709  0.10878935  0.09194041    -0.78400
C53         C  0.44631278  0.11870901  0.10566488     1.02200
O54         O  0.42801021  0.09308419  0.02420368    -0.85800
O55         O  0.43697906  0.11896885  0.95364607    -0.82800
C56         C  0.44770032  0.13300651  0.92667484     0.97700
O57         O  0.46362900  0.14965856  0.93897951    -0.82800
O58         O  0.49003251  0.13390570  0.94500027    -0.85500
C59         C  0.49800750  0.12369693  0.95963745     1.02200
O60         O  0.49627490  0.11905403  0.99930687    -0.78300
O61         O  0.45542351  0.09052167  0.01069576    -0.78400
C62         C  0.43611487  0.08203116  0.01563626     1.02200
Cr63       Cr  0.44013729  0.12426410  0.01670545     1.93700
Cr64       Cr  0.48451149  0.15204305  0.98305577     1.93200
Cr65       Cr  0.47473888  0.11568796  0.04264706     1.39100
O66         O  0.46647211  0.13070119  0.01431605    -1.23500
O67         O  0.44443674  0.13017626  0.57961232    -0.85800
O68         O  0.44903498  0.15369890  0.50800476    -0.82800
C69         C  0.46566614  0.17085484  0.51566250     0.97700
O70         O  0.48297600  0.17168630  0.51497653    -0.82800
O71         O  0.51246809  0.15970093  0.52066107    -0.85500
C72         C  0.51371640  0.15633993  0.56029457     1.02200
O73         O  0.49796146  0.14242090  0.57963318    -0.78200
O74         O  0.45784678  0.11070605  0.59551637    -0.78400
C75         C  0.44899000  0.12063855  0.60705152     1.02200
O76         O  0.43136066  0.09295121  0.52658221    -0.85800
O77         O  0.43999976  0.11744954  0.45432113    -0.82800
C78         C  0.45052903  0.13095258  0.42633864     0.97700
O79         O  0.46654141  0.14779837  0.43745204    -0.82800
O80         O  0.49308352  0.13245756  0.44861666    -0.85500
C81         C  0.50210011  0.12382925  0.46595663     1.02200
O82         O  0.50024411  0.12012831  0.50605367    -0.78300
O83         O  0.45941234  0.09092869  0.51745477    -0.78400
C84         C  0.43991953  0.08215149  0.51932172     1.02200
Cr85       Cr  0.44305050  0.12406353  0.51695036     1.93700
Cr86       Cr  0.48737589  0.15143919  0.48290264     1.93200
Cr87       Cr  0.47813692  0.11704955  0.54743109     1.39100
O88         O  0.46949185  0.13086442  0.51591119    -1.23500
O89         O  0.67717064  0.13045164  0.17144129    -0.85800
O90         O  0.69663698  0.15591951  0.24060435    -0.82800
C91         C  0.69664481  0.17243775  0.23005623     0.97700
O92         O  0.67988496  0.17279149  0.22997995    -0.82800
O93         O  0.63764236  0.15980965  0.23065376    -0.85500
C94         C  0.63155455  0.15517516  0.19206251     1.02200
O95         O  0.63399523  0.14170321  0.17250985    -0.78200
O96         O  0.64387354  0.11119292  0.15677946    -0.78400
C97         C  0.66265313  0.12070841  0.14463119     1.02200
O98         O  0.65456563  0.09482467  0.22697380    -0.85800
O99         O  0.67077041  0.12104665  0.29801415    -0.82800
C100        C  0.67421017  0.13558922  0.32388737     0.97700
O101        O  0.67533010  0.15200654  0.30960912    -0.82800
O102        O  0.63293214  0.13519705  0.30396865    -0.85500
C103        C  0.61476113  0.12532657  0.28867723     1.02200
O104        O  0.61176870  0.12014613  0.24914653    -0.78300
O105        O  0.62386334  0.09143997  0.23568128    -0.78400
C106        C  0.63523353  0.08343640  0.23380839     1.02200
Cr107      Cr  0.67335110  0.12597428  0.23452256     1.93700
Cr108      Cr  0.65637784  0.15348688  0.26613642     1.93200
Cr109      Cr  0.63014831  0.11719852  0.20562800     1.39100
O110        O  0.65323508  0.13211661  0.23521544    -1.23500
O111        O  0.66518687  0.11792767  0.67200478    -0.85800
O112        O  0.69015153  0.15495149  0.71438667    -0.82800
C113        C  0.69458863  0.17142708  0.73463567     0.97700
O114        O  0.68204399  0.17159573  0.76197038    -0.82800
O115        O  0.64745186  0.16784745  0.71928237    -0.85500
C116        C  0.63024832  0.15915465  0.69970547     1.02200
O117        O  0.61934286  0.13956511  0.69783059    -0.78200
O118        O  0.64256023  0.12702847  0.65219502    -0.78400
C119        C  0.65680815  0.12327714  0.64301101     1.02200
O120        O  0.65130731  0.09764859  0.75534459    -0.85800
O121        O  0.67868380  0.13447191  0.79654098    -0.82800
C122        C  0.66822947  0.13555621  0.82748395     0.97700
O123        O  0.65427789  0.14004351  0.82120747    -0.82800
O124        O  0.62081958  0.13886700  0.78311416    -0.85500
C125        C  0.60668683  0.11988050  0.78144747     1.02200
O126        O  0.60863897  0.10706561  0.75795352    -0.78300
O127        O  0.62783512  0.09108657  0.70613049    -0.78400
C128        C  0.63576720  0.08465963  0.73373713     1.02200
Cr129      Cr  0.66968726  0.12668444  0.73473087     1.93700
Cr130      Cr  0.65120082  0.15306443  0.76889060     1.93200
Cr131      Cr  0.62642764  0.11728301  0.70580326     1.39100
O132        O  0.64921511  0.13245213  0.73654376    -1.23500
O133        O  0.55169547  0.87966903  0.33721436    -0.85800
O134        O  0.54681626  0.85515763  0.26631532    -0.82800
C135        C  0.52996050  0.83827199  0.27374772     0.97700
O136        O  0.51290330  0.83795532  0.27307707    -0.82800
O137        O  0.48426553  0.85092777  0.27748409    -0.85500
C138        C  0.48309034  0.85490741  0.31679387     1.02200
O139        O  0.49895308  0.86891274  0.33608809    -0.78200
O140        O  0.53957022  0.90045620  0.35113401    -0.78400
C141        C  0.54758259  0.88993724  0.36382860     1.02200
O142        O  0.56564959  0.91625077  0.28226911    -0.85800
O143        O  0.55665236  0.89087613  0.21150647    -0.82800
C144        C  0.54586256  0.87720857  0.18379424     0.97700
O145        O  0.52951811  0.86076054  0.19489682    -0.82800
O146        O  0.50360657  0.87707263  0.20461947    -0.85500
C147        C  0.49506097  0.88629794  0.22157066     1.02200
O148        O  0.49715346  0.89043092  0.26148709    -0.78300
O149        O  0.53816351  0.91911478  0.27150510    -0.78400
C150        C  0.55761600  0.92725856  0.27246589     1.02200
Cr151      Cr  0.55339973  0.88504038  0.27424149     1.93700
Cr152      Cr  0.50898880  0.85816581  0.23994617     1.93200
Cr153      Cr  0.51916124  0.89365937  0.30293846     1.39100
O154        O  0.52719566  0.87893074  0.27247014    -1.23500
O155        O  0.55400707  0.88087281  0.83763332    -0.85800
O156        O  0.54791068  0.85578628  0.76695716    -0.82800
C157        C  0.53094559  0.83909588  0.77512230     0.97700
O158        O  0.51413862  0.83932504  0.77612818    -0.82800
O159        O  0.48622972  0.85374907  0.77994435    -0.85500
C160        C  0.48524081  0.85860885  0.81870640     1.02200
O161        O  0.50140327  0.87223010  0.83772516    -0.78200
O162        O  0.54251960  0.90221962  0.85199605    -0.78400
C163        C  0.55035577  0.89143131  0.86442535     1.02200
O164        O  0.56860168  0.91731177  0.78352061    -0.85800
O165        O  0.55816362  0.89163862  0.71182883    -0.82800
C166        C  0.54681612  0.87783177  0.68474105     0.97700
O167        O  0.53073253  0.86147754  0.69726532    -0.82800
O168        O  0.50592089  0.87879121  0.70617170    -0.85500
C169        C  0.49774164  0.88852588  0.72224806     1.02200
O170        O  0.50030389  0.89353917  0.76180815    -0.78300
O171        O  0.54187256  0.92129430  0.77147708    -0.78400
C172        C  0.56122500  0.92884141  0.77342812     1.02200
Cr173      Cr  0.55538072  0.88600575  0.77484853     1.93700
Cr174      Cr  0.51066326  0.85977234  0.74237251     1.93200
Cr175      Cr  0.52219771  0.89624237  0.80367289     1.39100
O176        O  0.52937865  0.88060166  0.77395025    -1.23500
O177        O  0.67425106  0.55937254  0.41717653    -0.85800
O178        O  0.69398070  0.55386836  0.34789917    -0.82800
C179        C  0.69457737  0.53760671  0.35786373     0.97700
O180        O  0.67800996  0.52017725  0.35858129    -0.82800
O181        O  0.63612332  0.49079059  0.36222159    -0.85500
C182        C  0.62997960  0.48970211  0.40060019     1.02200
O183        O  0.63158035  0.50561338  0.41894278    -0.78200
O184        O  0.64117140  0.54648394  0.43151557    -0.78400
C185        C  0.65990150  0.55510796  0.44389931     1.02200
O186        O  0.65150387  0.57191763  0.36078996    -0.85800
O187        O  0.66757781  0.56172693  0.29087452    -0.82800
C188        C  0.67068856  0.55057701  0.26464511     0.97700
O189        O  0.67139294  0.53490938  0.27807431    -0.82800
O190        O  0.62919268  0.50813381  0.28728227    -0.85500
C191        C  0.61121591  0.49963156  0.30341607     1.02200
O192        O  0.60874895  0.50280634  0.34255741    -0.78300
O193        O  0.62100190  0.54415925  0.35086953    -0.78400
C194        C  0.63235077  0.56369635  0.35166905     1.02200
Cr195      Cr  0.67042675  0.55986864  0.35413305     1.93700
Cr196      Cr  0.65358744  0.51497098  0.32395607     1.93200
Cr197      Cr  0.62743589  0.52548907  0.38379277     1.39100
O198        O  0.65045448  0.53341613  0.35411989    -1.23500
O199        O  0.67392395  0.55660630  0.91631370    -0.85800
O200        O  0.69218365  0.55183689  0.84381930    -0.82800
C201        C  0.69300378  0.53548865  0.85180026     0.97700
O202        O  0.67651034  0.51795351  0.85245592    -0.82800
O203        O  0.63440980  0.48811062  0.85805518    -0.85500
C204        C  0.62961157  0.48690855  0.89751511     1.02200
O205        O  0.63230162  0.50290031  0.91726896    -0.78200
O206        O  0.64108823  0.54302659  0.93373674    -0.78400
C207        C  0.66005160  0.55196625  0.94437456     1.02200
O208        O  0.64950376  0.56915374  0.86441003    -0.85800
O209        O  0.66463742  0.56023940  0.79122466    -0.82800
C210        C  0.66787968  0.54970298  0.76365825     0.97700
O211        O  0.66869876  0.53384450  0.77527182    -0.82800
O212        O  0.62671844  0.50728704  0.78658555    -0.85500
C213        C  0.60904533  0.49858854  0.80404030     1.02200
O214        O  0.60728864  0.50044392  0.84423009    -0.78300
O215        O  0.61885195  0.54119425  0.85701006    -0.78400
C216        C  0.63005414  0.56072278  0.85813593     1.02200
Cr217      Cr  0.66868354  0.55763770  0.85385875     1.93700
Cr218      Cr  0.65151465  0.51315840  0.82064589     1.93200
Cr219      Cr  0.62660078  0.52257823  0.88576573     1.39100
O220        O  0.64891910  0.53116055  0.85351638    -1.23500
O221        O  0.43996828  0.32413371  0.00900323    -0.85800
O222        O  0.44397808  0.30420998  0.07911190    -0.82800
C223        C  0.46071332  0.30415492  0.07114845     0.97700
O224        O  0.47791487  0.32094835  0.07260557    -0.82800
O225        O  0.50731723  0.36293005  0.07116550    -0.85500
C226        C  0.50907483  0.36852579  0.03213194     1.02200
O227        O  0.49341040  0.36627701  0.01189215    -0.78200
O228        O  0.45333038  0.35729542  0.99439860    -0.78400
C229        C  0.44504560  0.33853309  0.98202221     1.02200
O230        O  0.42625137  0.34719494  0.06302928    -0.85800
O231        O  0.43445442  0.33047043  0.13444404    -0.82800
C232        C  0.44483699  0.32714646  0.16211446     0.97700
O233        O  0.46079043  0.32651385  0.15068918    -0.82800
O234        O  0.48717234  0.36896847  0.14323538    -0.85500
C235        C  0.49649626  0.38697273  0.12716653     1.02200
O236        O  0.49481673  0.38953973  0.08726397    -0.78300
O237        O  0.45413163  0.37756805  0.07404645    -0.78400
C238        C  0.43465614  0.36644113  0.07240530     1.02200
Cr239      Cr  0.43794100  0.32787410  0.07162007     1.93700
Cr240      Cr  0.48193758  0.34491190  0.10695284     1.93200
Cr241      Cr  0.47314686  0.37091523  0.04397130     1.39100
O242        O  0.46430741  0.34789774  0.07405847    -1.23500
O243        O  0.44027032  0.32279163  0.50853710    -0.85800
O244        O  0.44650814  0.30351687  0.57794831    -0.82800
C245        C  0.46339378  0.30388869  0.56932934     0.97700
O246        O  0.48034172  0.32096469  0.56931692    -0.82800
O247        O  0.50839723  0.36323201  0.56660523    -0.85500
C248        C  0.50944924  0.36889590  0.52783315     1.02200
O249        O  0.49338939  0.36633612  0.50870698    -0.78200
O250        O  0.45244737  0.35590590  0.49505766    -0.78400
C251        C  0.44403162  0.33718933  0.48225446     1.02200
O252        O  0.42665010  0.34486076  0.56525709    -0.85800
O253        O  0.43683653  0.32902756  0.63502929    -0.82800
C254        C  0.44805463  0.32631354  0.66159044     0.97700
O255        O  0.46401254  0.32612559  0.64860705    -0.82800
O256        O  0.48894533  0.36864766  0.64035258    -0.85500
C257        C  0.49729154  0.38670060  0.62457775     1.02200
O258        O  0.49517932  0.38918686  0.58488940    -0.78300
O259        O  0.45396166  0.37569940  0.57576574    -0.78400
C260        C  0.43454825  0.36393904  0.57549376     1.02200
Cr261      Cr  0.43935883  0.32642864  0.57176107     1.93700
Cr262      Cr  0.48402708  0.34479437  0.60381811     1.93200
Cr263      Cr  0.47305931  0.36999477  0.54307529     1.39100
O264        O  0.46548044  0.34701916  0.57255236    -1.23500
O265        O  0.54867674  0.68428865  0.25848297    -0.85800
O266        O  0.54375714  0.70265089  0.33041205    -0.82800
C267        C  0.52700282  0.70255741  0.32205999     0.97700
O268        O  0.50980490  0.68569186  0.32328210    -0.82800
O269        O  0.48090910  0.64321929  0.32013426    -0.85500
C270        C  0.47910577  0.63789109  0.28084117     1.02200
O271        O  0.49482801  0.64060513  0.26023848    -0.78200
O272        O  0.53525224  0.65127603  0.24136837    -0.78400
C273        C  0.54404616  0.67026488  0.23052243     1.02200
O274        O  0.56296347  0.66138506  0.31002886    -0.85800
O275        O  0.55382132  0.67620208  0.38321421    -0.82800
C276        C  0.54322876  0.67891777  0.41135086     0.97700
O277        O  0.52733256  0.67974302  0.40040583    -0.82800
O278        O  0.50154380  0.63712027  0.39113269    -0.85500
C279        C  0.49348252  0.61916941  0.37443925     1.02200
O280        O  0.49497509  0.61714196  0.33413659    -0.78300
O281        O  0.53569609  0.63046200  0.31897367    -0.78400
C282        C  0.55509557  0.64204216  0.31694452     1.02200
Cr283      Cr  0.55045029  0.67970478  0.32082007     1.93700
Cr284      Cr  0.50627172  0.66143141  0.35612485     1.93200
Cr285      Cr  0.51588533  0.63663989  0.29087843     1.39100
O286        O  0.52420749  0.65926179  0.32235135    -1.23500
O287        O  0.54879175  0.68120830  0.75778729    -0.85800
O288        O  0.54400504  0.70209188  0.82607660    -0.82800
C289        C  0.52737518  0.70232191  0.81779157     0.97700
O290        O  0.51007662  0.68561639  0.81882103    -0.82800
O291        O  0.48078354  0.64364816  0.81744949    -0.85500
C292        C  0.47961522  0.63811555  0.77846274     1.02200
O293        O  0.49531696  0.63958016  0.75993573    -0.78200
O294        O  0.53515187  0.64782511  0.74502279    -0.78400
C295        C  0.54404291  0.66642566  0.73164601     1.02200
O296        O  0.56158213  0.65879803  0.81521734    -0.85800
O297        O  0.55297356  0.67659487  0.88443486    -0.82800
C298        C  0.54237864  0.68027658  0.91090081     0.97700
O299        O  0.52643981  0.68059541  0.89818885    -0.82800
O300        O  0.50006406  0.63802550  0.89157120    -0.85500
C301        C  0.49116524  0.61975576  0.87639706     1.02200
O302        O  0.49291518  0.61677273  0.83671728    -0.78300
O303        O  0.53371468  0.62843232  0.82599522    -0.78400
C304        C  0.55319250  0.63959569  0.82467425     1.02200
Cr305      Cr  0.55001479  0.67830206  0.82108240     1.93700
Cr306      Cr  0.50573341  0.66180238  0.85411187     1.93200
Cr307      Cr  0.51499553  0.63495812  0.79399429     1.39100
O308        O  0.52362663  0.65837698  0.82292857    -1.23500
O309        O  0.31382731  0.44865856  0.16659606    -0.85800
O310        O  0.29466327  0.45359947  0.09486880    -0.82800
C311        C  0.29453793  0.47035146  0.10276297     0.97700
O312        O  0.31132682  0.48757757  0.10280618    -0.82800
O313        O  0.35319597  0.51691285  0.10779691    -0.85500
C314        C  0.35836677  0.51817657  0.14710490     1.02200
O315        O  0.35583488  0.50220724  0.16652631    -0.78200
O316        O  0.34690316  0.46183315  0.18140230    -0.78400
C317        C  0.32815202  0.45279270  0.19342180     1.02200
O318        O  0.33720288  0.43551714  0.11268055    -0.85800
O319        O  0.32135076  0.44441654  0.04103353    -0.82800
C320        C  0.31851343  0.45510359  0.01337478     0.97700
O321        O  0.31794899  0.47115886  0.02466885    -0.82800
O322        O  0.36032750  0.49774573  0.03500154    -0.85500
C323        C  0.37804817  0.50681609  0.05252222     1.02200
O324        O  0.37993146  0.50456255  0.09243738    -0.78300
O325        O  0.36766632  0.46344755  0.10309485    -0.78400
C326        C  0.35659219  0.44393851  0.10560356     1.02200
Cr327      Cr  0.31811257  0.44739823  0.10362615     1.93700
Cr328      Cr  0.33571875  0.49193054  0.07000319     1.93200
Cr329      Cr  0.36083511  0.48230176  0.13364774     1.39100
O330        O  0.33819257  0.47384135  0.10253633    -1.23500
O331        O  0.31705193  0.45002967  0.66656068    -0.85800
O332        O  0.29815739  0.45450716  0.59452910    -0.82800
C333        C  0.29819215  0.47139842  0.60141827     0.97700
O334        O  0.31503284  0.48860849  0.59941214    -0.82800
O335        O  0.35717202  0.51731409  0.60362639    -0.85500
C336        C  0.36211952  0.51912590  0.64301837     1.02200
O337        O  0.35975786  0.50358424  0.66387683    -0.78200
O338        O  0.35002558  0.46338470  0.68252811    -0.78400
C339        C  0.33120876  0.45451288  0.69403375     1.02200
O340        O  0.33967902  0.43572574  0.61464381    -0.85800
O341        O  0.32420062  0.44404215  0.54134841    -0.82800
C342        C  0.32145018  0.45452345  0.51296380     0.97700
O343        O  0.32159742  0.47103216  0.52326272    -0.82800
O344        O  0.36432590  0.49711842  0.53348348    -0.85500
C345        C  0.38214553  0.50589202  0.55084493     1.02200
O346        O  0.38395277  0.50418365  0.59104881    -0.78300
O347        O  0.37083519  0.46287619  0.60600394    -0.78400
C348        C  0.35904659  0.44343829  0.60890474     1.02200
Cr349      Cr  0.32125461  0.44799269  0.60391654     1.93700
Cr350      Cr  0.33957379  0.49208266  0.56756153     1.93200
Cr351      Cr  0.36434029  0.48279999  0.63343436     1.39100
O352        O  0.34173146  0.47424595  0.60170912    -1.23500
O353        O  0.12088941  0.45248994  0.08617222    -0.85800
O354        O  0.14517393  0.45679797  0.15597727    -0.82800
C355        C  0.16210475  0.47354022  0.14802554     0.97700
O356        O  0.16293979  0.49089127  0.15039704    -0.82800
O357        O  0.15056680  0.52030055  0.14960113    -0.85500
C358        C  0.14702373  0.52193746  0.11030938     1.02200
O359        O  0.13343751  0.50624647  0.09001942    -0.78200
O360        O  0.10161041  0.46633192  0.07193965    -0.78400
C361        C  0.11110617  0.45716034  0.05959083     1.02200
O362        O  0.08475033  0.43921750  0.14016868    -0.85800
O363        O  0.10952125  0.44724775  0.21182556    -0.82800
C364        C  0.12340458  0.45755502  0.23947585     0.97700
O365        O  0.14016679  0.47343834  0.22807495    -0.82800
O366        O  0.12402956  0.49959229  0.22119166    -0.85500
C367        C  0.11523218  0.50873487  0.20519774     1.02200
O368        O  0.11149575  0.50761478  0.16509792    -0.78300
O369        O  0.08218525  0.46700529  0.15066625    -0.78400
C370        C  0.07381040  0.44753129  0.14778376     1.02200
Cr371      Cr  0.11555638  0.45074037  0.14892784     1.93700
Cr372      Cr  0.14297520  0.49472454  0.18484181     1.93200
Cr373      Cr  0.10822243  0.48609492  0.12153445     1.39100
O374        O  0.12221101  0.47712948  0.15157968    -1.23500
O375        O  0.12165386  0.44946459  0.58698831    -0.85800
O376        O  0.14569844  0.45334282  0.65839611    -0.82800
C377        C  0.16300403  0.47005951  0.65231074     0.97700
O378        O  0.16381097  0.48741730  0.65340616    -0.82800
O379        O  0.15216683  0.51728212  0.65030724    -0.85500
C380        C  0.14866297  0.51920992  0.61117748     1.02200
O381        O  0.13508498  0.50369192  0.59038943    -0.78200
O382        O  0.10283495  0.46376080  0.57253369    -0.78400
C383        C  0.11220114  0.45445197  0.56010028     1.02200
O384        O  0.08506846  0.43670567  0.64097103    -0.85800
O385        O  0.10964116  0.44437903  0.71252444    -0.82800
C386        C  0.12317501  0.45477461  0.74068785     0.97700
O387        O  0.14010388  0.47058497  0.72988833    -0.82800
O388        O  0.12513292  0.49783455  0.72145263    -0.85500
C389        C  0.11690139  0.50742296  0.70474547     1.02200
O390        O  0.11311277  0.50583535  0.66461286    -0.78300
O391        O  0.08352055  0.46507461  0.65124196    -0.78400
C392        C  0.07456808  0.44552893  0.64886072     1.02200
Cr393      Cr  0.11606457  0.44784210  0.64994398     1.93700
Cr394      Cr  0.14381978  0.49189301  0.68619825     1.93200
Cr395      Cr  0.10963497  0.48377816  0.62184893     1.39100
O396        O  0.12317988  0.47446124  0.65246057    -1.23500
O397        O  0.11999911  0.68207936  0.50484709    -0.85800
O398        O  0.14529612  0.70212069  0.43621342    -0.82800
C399        C  0.16226593  0.70290930  0.44621106     0.97700
O400        O  0.16321012  0.68644484  0.44644553    -0.82800
O401        O  0.15144223  0.64466584  0.44809911    -0.85500
C402        C  0.14702361  0.63875073  0.48675790     1.02200
O403        O  0.13292157  0.64028655  0.50580321    -0.78200
O404        O  0.10129779  0.64880542  0.52037395    -0.78400
C405        C  0.11062174  0.66774287  0.53202169     1.02200
O406        O  0.08451942  0.65813824  0.44834512    -0.85800
O407        O  0.11061234  0.67468124  0.37852478    -0.82800
C408        C  0.12504298  0.67843624  0.35244431     0.97700
O409        O  0.14180242  0.68019482  0.36624613    -0.82800
O410        O  0.12635157  0.63796070  0.37435077    -0.85500
C411        C  0.11680441  0.61980655  0.38978386     1.02200
O412        O  0.11199233  0.61701565  0.42940544    -0.78300
O413        O  0.08253114  0.62794168  0.44034786    -0.78400
C414        C  0.07394718  0.63880057  0.43978561     1.02200
Cr415      Cr  0.11559874  0.67790480  0.44189531     1.93700
Cr416      Cr  0.14417579  0.66217336  0.41122385     1.93200
Cr417      Cr  0.10824042  0.63533935  0.47191342     1.39100
O418        O  0.12264785  0.65845930  0.44200258    -1.23500
O419        O  0.12171029  0.68212734  0.00391023    -0.85800
O420        O  0.14513194  0.70311859  0.93289725    -0.82800
C421        C  0.16214950  0.70337464  0.93877907     0.97700
O422        O  0.16252172  0.68664205  0.93664889    -0.82800
O423        O  0.15029647  0.64499519  0.93732732    -0.85500
C424        C  0.14684162  0.63952218  0.97641844     1.02200
O425        O  0.13291982  0.64077178  0.99686730    -0.78200
O426        O  0.10158996  0.64882622  0.01660660    -0.78400
C427        C  0.11212162  0.66738746  0.03019880     1.02200
O428        O  0.08458597  0.65962293  0.95010116    -0.85800
O429        O  0.10890897  0.67727979  0.87866103    -0.82800
C430        C  0.12234484  0.68073027  0.85025999     0.97700
O431        O  0.13887852  0.68086570  0.86000135    -0.82800
O432        O  0.12362440  0.63826257  0.86579938    -0.85500
C433        C  0.11496231  0.62017139  0.88164809     1.02200
O434        O  0.11055868  0.61758290  0.92151149    -0.78300
O435        O  0.08136118  0.62908608  0.93727454    -0.78400
C436        C  0.07331374  0.64040189  0.94079247     1.02200
Cr437      Cr  0.11551469  0.67912749  0.94107855     1.93700
Cr438      Cr  0.14229313  0.66256682  0.90250199     1.93200
Cr439      Cr  0.10763269  0.63584958  0.96582422     1.39100
O440        O  0.12169871  0.65912338  0.93628750    -1.23500
O441        O  0.87133133  0.55933542  0.33874053    -0.85800
O442        O  0.84692498  0.55476615  0.40914960    -0.82800
C443        C  0.82951828  0.53834797  0.40170803     0.97700
O444        O  0.82824552  0.52077451  0.40148608    -0.82800
O445        O  0.83966226  0.49046478  0.39841523    -0.85500
C446        C  0.84356779  0.48872201  0.35943825     1.02200
O447        O  0.85715610  0.50444502  0.33948128    -0.78200
O448        O  0.88944020  0.54436025  0.32305867    -0.78400
C449        C  0.88057997  0.55427087  0.31149204     1.02200
O450        O  0.90739360  0.57123628  0.39321820    -0.85800
O451        O  0.88215588  0.56280428  0.46466956    -0.82800
C452        C  0.86807245  0.55253366  0.49181756     0.97700
O453        O  0.85117337  0.53695337  0.47962892    -0.82800
O454        O  0.86601749  0.50977708  0.47061804    -0.85500
C455        C  0.87441413  0.50035891  0.45392077     1.02200
O456        O  0.87878964  0.50230341  0.41410831    -0.78300
O457        O  0.90881965  0.54274734  0.40139569    -0.78400
C458        C  0.91788771  0.56230367  0.39964460     1.02200
Cr459      Cr  0.87640730  0.56016298  0.40163991     1.93700
Cr460      Cr  0.84780324  0.51589476  0.43493301     1.93200
Cr461      Cr  0.88253601  0.52425119  0.37171685     1.39100
O462        O  0.86893668  0.53348067  0.40251953    -1.23500
O463        O  0.86945112  0.55848347  0.83897656    -0.85800
O464        O  0.84558345  0.55472536  0.90971679    -0.82800
C465        C  0.82846473  0.53804815  0.90212077     0.97700
O466        O  0.82762565  0.52068013  0.90325930    -0.82800
O467        O  0.84029588  0.49133114  0.90131317    -0.85500
C468        C  0.84451896  0.48974789  0.86242021     1.02200
O469        O  0.85800941  0.50553945  0.84262591    -0.78200
O470        O  0.88952943  0.54545312  0.82596669    -0.78400
C471        C  0.87934142  0.55376561  0.81269558     1.02200
O472        O  0.90625238  0.57244659  0.89326421    -0.85800
O473        O  0.88140638  0.56438192  0.96464401    -0.82800
C474        C  0.86772397  0.55397766  0.99238522     0.97700
O475        O  0.85081209  0.53811889  0.98110542    -0.82800
O476        O  0.86632609  0.51152989  0.97396788    -0.85500
C477        C  0.87534869  0.50250672  0.95835533     1.02200
O478        O  0.87953476  0.50395840  0.91844759    -0.78300
O479        O  0.90862125  0.54479059  0.90601123    -0.78400
C480        C  0.91711700  0.56427225  0.90323814     1.02200
Cr481      Cr  0.87519633  0.56074420  0.90191529     1.93700
Cr482      Cr  0.84767868  0.51673833  0.93740363     1.93200
Cr483      Cr  0.88289966  0.52563808  0.87528131     1.39100
O484        O  0.86857145  0.53437959  0.90473585    -1.23500
O485        O  0.87075996  0.32621972  0.24669759    -0.85800
O486        O  0.84766407  0.30735292  0.17425191    -0.82800
C487        C  0.83068399  0.30687734  0.18182491     0.97700
O488        O  0.83001716  0.32347219  0.18175738    -0.82800
O489        O  0.84213141  0.36502558  0.18833673    -0.85500
C490        C  0.84569573  0.37003436  0.22781722     1.02200
O491        O  0.85928157  0.36793834  0.24770840    -0.78200
O492        O  0.89068338  0.35919398  0.26334824    -0.78400
C493        C  0.88025633  0.34029272  0.27458596     1.02200
O494        O  0.90776942  0.35043525  0.19456301    -0.85800
O495        O  0.88384127  0.33477357  0.12176804    -0.82800
C496        C  0.87047959  0.33198938  0.09357380     0.97700
O497        O  0.85376759  0.33122898  0.10450380    -0.82800
O498        O  0.86916223  0.37337599  0.11667224    -0.85500
C499        C  0.87755732  0.39101945  0.13469054     1.02200
O500        O  0.88146939  0.39273563  0.17474876    -0.78300
O501        O  0.91037440  0.38085645  0.18535093    -0.78400
C502        C  0.91860458  0.36967548  0.18576090     1.02200
Cr503      Cr  0.87705333  0.33106261  0.18425215     1.93700
Cr504      Cr  0.85018771  0.34831675  0.15026499     1.93200
Cr505      Cr  0.88449200  0.37345215  0.21556787     1.39100
O506        O  0.87056528  0.35091964  0.18346918    -1.23500
O507        O  0.87289092  0.32741407  0.74753440    -0.85800
O508        O  0.84717787  0.30618465  0.67909552    -0.82800
C509        C  0.83030841  0.30532345  0.68988413     0.97700
O510        O  0.82925243  0.32171476  0.69071977    -0.82800
O511        O  0.84096771  0.36358803  0.69161024    -0.85500
C512        C  0.84655735  0.37033343  0.72966788     1.02200
O513        O  0.86103256  0.36898892  0.74742407    -0.78200
O514        O  0.89297601  0.36092043  0.75966102    -0.78400
C515        C  0.88320322  0.34235237  0.77326734     1.02200
O516        O  0.90780826  0.35024637  0.68999950    -0.85800
O517        O  0.88095595  0.33267471  0.62090646    -0.82800
C518        C  0.86628965  0.32868073  0.59512137     0.97700
O519        O  0.84963297  0.32718049  0.60902652    -0.82800
O520        O  0.86449043  0.36927297  0.61560693    -0.85500
C521        C  0.87382907  0.38756663  0.63050596     1.02200
O522        O  0.87981792  0.39099727  0.66945728    -0.78300
O523        O  0.90968793  0.38008658  0.67766465    -0.78400
C524        C  0.91836028  0.36932296  0.67964740     1.02200
Cr525      Cr  0.87672413  0.33042555  0.68425586     1.93700
Cr526      Cr  0.84759611  0.34558615  0.65406899     1.93200
Cr527      Cr  0.88483139  0.37347560  0.71154232     1.39100
O528        O  0.86972673  0.34986143  0.68343522    -1.23500
C529        C  0.87423264  0.33005915  0.04746427    -0.01700
C530        C  0.89418391  0.34182392  0.03001597    -0.09700
C531        C  0.89717830  0.34280010  0.98532140    -0.18600
C532        C  0.88020183  0.33175410  0.95675856     0.03800
C533        C  0.86031827  0.31847015  0.97505587     0.18000
C534        C  0.85747909  0.31801300  0.01985835    -0.20000
C535        C  0.84322633  0.30615009  0.94850187    -0.21200
C536        C  0.84527605  0.30716211  0.90393887    -0.19800
C537        C  0.86428689  0.32107346  0.88481266     0.19400
C538        C  0.88204706  0.33369954  0.91085110     0.01500
C539        C  0.90050221  0.34845567  0.88983048    -0.14500
C540        C  0.90101594  0.35094442  0.84505541    -0.12200
C541        C  0.88346555  0.33834821  0.81976890     0.01100
C542        C  0.86534176  0.32308542  0.83975782    -0.24400
H543        H  0.90738142  0.35111485  0.05087516     0.09100
H544        H  0.91287920  0.35245398  0.97403150     0.12600
H545        H  0.84205619  0.30857420  0.03330433     0.11400
H546        H  0.82809672  0.29579042  0.96230133     0.12600
H547        H  0.83168604  0.29754131  0.88427324     0.11600
H548        H  0.91448376  0.35889704  0.90728252     0.08700
H549        H  0.91514174  0.36293468  0.83013592     0.11900
H550        H  0.85159402  0.31360084  0.82034373     0.13800
C551        C  0.86870594  0.32658345  0.54845538    -0.01700
C552        C  0.85154832  0.31335422  0.52280743    -0.09700
C553        C  0.85335063  0.31317551  0.47793341    -0.18600
C554        C  0.87233595  0.32684689  0.45718340     0.03800
C555        C  0.88964999  0.34027665  0.48356800     0.18000
C556        C  0.88782383  0.33962415  0.52868083    -0.20000
C557        C  0.90846640  0.35492858  0.46478466    -0.21200
C558        C  0.91027809  0.35712555  0.42027711    -0.19800
C559        C  0.89351562  0.34429352  0.39339435     0.19400
C560        C  0.87454153  0.32841854  0.41129388     0.01500
C561        C  0.85854377  0.31513399  0.38240311    -0.14500
C562        C  0.86088025  0.31835184  0.33784108    -0.12200
C563        C  0.87905607  0.33498938  0.32077406     0.01100
C564        C  0.89547288  0.34760509  0.34867358    -0.24400
H565        H  0.83658193  0.30328935  0.53753343     0.09100
H566        H  0.83941629  0.30279989  0.46028475     0.12600
H567        H  0.90102670  0.35023782  0.54838481     0.11400
H568        H  0.92169208  0.36523647  0.48471320     0.12600
H569        H  0.92485719  0.36908517  0.40678900     0.11600
H570        H  0.84401496  0.30223154  0.39329497     0.08700
H571        H  0.84805477  0.30831289  0.31677288     0.11900
H572        H  0.90972961  0.36028609  0.33553240     0.13800
C573        C  0.87935709  0.48868242  0.98581235    -0.01700
C574        C  0.87891383  0.48990588  0.03082334    -0.09700
C575        C  0.88053326  0.47543922  0.05670141    -0.18600
C576        C  0.88228508  0.45895918  0.03818355     0.03800
C577        C  0.88310079  0.45805785  0.99246448     0.18000
C578        C  0.88193273  0.47297917  0.96693013    -0.20000
C579        C  0.88441390  0.44189137  0.97233578    -0.21200
C580        C  0.88437203  0.42619963  0.99658574    -0.19800
C581        C  0.88323775  0.42640005  0.04158725     0.19400
C582        C  0.88261767  0.44300276  0.06316892     0.01500
C583        C  0.88192691  0.44263555  0.10874308    -0.14500
C584        C  0.88115850  0.42614998  0.13167684    -0.12200
C585        C  0.88093317  0.40944582  0.11012878     0.01100
C586        C  0.88225232  0.40980656  0.06509244    -0.24400
H587        H  0.87698670  0.50193827  0.04614802     0.09100
H588        H  0.87982637  0.47728975  0.09100720     0.12600
H589        H  0.88207680  0.47176262  0.93208292     0.11400
H590        H  0.88502888  0.44113037  0.93749255     0.12600
H591        H  0.88498172  0.41367329  0.97996845     0.11600
H592        H  0.88171690  0.45470664  0.12763832     0.08700
H593        H  0.87999607  0.42614949  0.16650623     0.11900
H594        H  0.88218337  0.39696693  0.04824280     0.13800
C595        C  0.83701723  0.46903864  0.84322151    -0.01700
C596        C  0.83422571  0.46597127  0.79865664    -0.09700
C597        C  0.83187949  0.44783716  0.77959439    -0.18600
C598        C  0.83319254  0.43262337  0.80460710     0.03800
C599        C  0.83590283  0.43587406  0.84990501     0.18000
C600        C  0.83700447  0.45354880  0.86880453    -0.20000
C601        C  0.83889919  0.42222156  0.87580070    -0.21200
C602        C  0.84021449  0.40586721  0.85741905    -0.19800
C603        C  0.83780072  0.40232181  0.81290927     0.19400
C604        C  0.83331668  0.41506806  0.78610059     0.01500
C605        C  0.82983042  0.41005159  0.74175361    -0.14500
C606        C  0.83242949  0.39419869  0.72427795    -0.12200
C607        C  0.83870779  0.38295182  0.75025343     0.01100
C608        C  0.84069991  0.38663353  0.79477888    -0.24400
H609        H  0.83463544  0.47800018  0.77834068     0.09100
H610        H  0.83034009  0.44678702  0.74498551     0.12600
H611        H  0.83986123  0.45619674  0.90319929     0.11400
H612        H  0.84115102  0.42474565  0.91031302     0.12600
H613        H  0.84343785  0.39610364  0.87809735     0.11600
H614        H  0.82544606  0.41833732  0.71964852     0.08700
H615        H  0.83077360  0.39164582  0.68972817     0.11900
H616        H  0.84537073  0.37785506  0.81510782     0.13800
C617        C  0.87129204  0.55797527  0.53815559    -0.01700
C618        C  0.89104587  0.56609989  0.55654491    -0.09700
C619        C  0.89365826  0.56785199  0.60129627    -0.18600
C620        C  0.87648539  0.56166987  0.62910506     0.03800
C621        C  0.85679329  0.55518772  0.61003593     0.18000
C622        C  0.85431279  0.55307238  0.56502265    -0.20000
C623        C  0.83959611  0.55030388  0.63606577    -0.21200
C624        C  0.84138881  0.55111422  0.68079885    -0.19800
C625        C  0.86022761  0.55606663  0.70061256     0.19400
C626        C  0.87802895  0.56127283  0.67501781     0.01500
C627        C  0.89629388  0.56478525  0.69637654    -0.14500
C628        C  0.89670342  0.56276839  0.74104812    -0.12200
C629        C  0.87921915  0.55782566  0.76611477     0.01100
C630        C  0.86114956  0.55496674  0.74581637    -0.24400
H631        H  0.90440709  0.57017121  0.53634784     0.09100
H632        H  0.90926758  0.57393951  0.61317942     0.12600
H633        H  0.83902632  0.54714141  0.55087329     0.11400
H634        H  0.82460116  0.54564687  0.62172614     0.12600
H635        H  0.82774445  0.54709926  0.70002265     0.11600
H636        H  0.91025228  0.56824350  0.67930003     0.08700
H637        H  0.91076638  0.56488673  0.75610741     0.11900
H638        H  0.84742623  0.55070200  0.76501957     0.13800
C639        C  0.88089511  0.55951976  0.26546640    -0.01700
C640        C  0.86508150  0.56224495  0.24819602    -0.09700
C641        C  0.86362250  0.56423770  0.20375139    -0.18600
C642        C  0.87810866  0.56367246  0.17514519     0.03800
C643        C  0.89517354  0.56279954  0.19323729     0.18000
C644        C  0.89625221  0.56044243  0.23791548    -0.20000
C645        C  0.91072642  0.56368250  0.16652097    -0.21200
C646        C  0.90931754  0.56467340  0.12196095    -0.19800
C647        C  0.89193602  0.56399926  0.10300930     0.19400
C648        C  0.87600769  0.56338861  0.12932118     0.01500
C649        C  0.85807042  0.56118555  0.10865745    -0.14500
C650        C  0.85575122  0.55889298  0.06395459    -0.12200
C651        C  0.87150417  0.55957379  0.03837011     0.01100
C652        C  0.88982675  0.56275671  0.05788953    -0.24400
H653        H  0.85326214  0.56196875  0.26894993     0.09100
H654        H  0.85090809  0.56604130  0.19271032     0.12600
H655        H  0.90886781  0.55889292  0.25120005     0.11400
H656        H  0.92394916  0.56335131  0.18015525     0.12600
H657        H  0.92148912  0.56509288  0.10212788     0.11600
H658        H  0.84509217  0.56005348  0.12629317     0.08700
H659        H  0.84137753  0.55614710  0.04930519     0.11900
H660        H  0.90180203  0.56271528  0.03809635     0.13800
C661        C  0.87719967  0.48528614  0.47952007    -0.01700
C662        C  0.87920719  0.46972147  0.45839915    -0.09700
C663        C  0.87954277  0.45390113  0.48156028    -0.18600
C664        C  0.87798154  0.45318175  0.52699121     0.03800
C665        C  0.87667457  0.46943823  0.54841314     0.18000
C666        C  0.87615495  0.48519085  0.52459658    -0.20000
C667        C  0.87560547  0.46971980  0.59342412    -0.21200
C668        C  0.87574922  0.45413675  0.61773820    -0.19800
C669        C  0.87665606  0.43775022  0.59756536     0.19400
C670        C  0.87756704  0.43688267  0.55187401     0.01500
C671        C  0.87760435  0.41951598  0.53310074    -0.14500
C672        C  0.87672688  0.40370730  0.55868202    -0.12200
C673        C  0.87616975  0.40486607  0.60359996     0.01100
C674        C  0.87627389  0.42198204  0.62287207    -0.24400
H675        H  0.87988156  0.46935494  0.42352532     0.09100
H676        H  0.88095401  0.44245695  0.46284687     0.12600
H677        H  0.87466291  0.49724104  0.54114650     0.11400
H678        H  0.87464068  0.48207236  0.60994220     0.12600
H679        H  0.87490115  0.45477546  0.65255982     0.11600
H680        H  0.87788074  0.41743392  0.49878297     0.08700
H681        H  0.87643120  0.39046664  0.54323628     0.11900
H682        H  0.87531768  0.42267308  0.65769025     0.13800
C683        C  0.83526767  0.46779253  0.34026746    -0.01700
C684        C  0.83257123  0.46474657  0.29570043    -0.09700
C685        C  0.82935461  0.44623288  0.27684173    -0.18600
C686        C  0.82971329  0.43054787  0.30204855     0.03800
C687        C  0.83178566  0.43349656  0.34746931     0.18000
C688        C  0.83382927  0.45166837  0.36613996    -0.20000
C689        C  0.83337308  0.41905858  0.37371310    -0.21200
C690        C  0.83447896  0.40252011  0.35553539    -0.19800
C691        C  0.83337635  0.39966787  0.31078607     0.19400
C692        C  0.82978885  0.41293830  0.28362237     0.01500
C693        C  0.82751987  0.40860914  0.23894169    -0.14500
C694        C  0.83088438  0.39324436  0.22156815    -0.12200
C695        C  0.83666917  0.38173135  0.24797872     0.01100
C696        C  0.83699272  0.38438046  0.29279341    -0.24400
H697        H  0.83376661  0.47707202  0.27519580     0.09100
H698        H  0.82798918  0.44527143  0.24221522     0.12600
H699        H  0.83633988  0.45411027  0.40064674     0.11400
H700        H  0.83490291  0.42120232  0.40839096     0.12600
H701        H  0.83682455  0.39225705  0.37653604     0.11600
H702        H  0.82373693  0.41721922  0.21643912     0.08700
H703        H  0.83032978  0.39140068  0.18683474     0.11900
H704        H  0.84114352  0.37531324  0.31351206     0.13800
C705        C  0.05040962  0.63061166  0.93578733    -0.01700
C706        C  0.04103073  0.64228131  0.92502416    -0.09700
C707        C  0.01938810  0.63259001  0.91963381    -0.18600
C708        C  0.00636274  0.61084517  0.92560722     0.03800
C709        C  0.01602979  0.59927552  0.93760068     0.18000
C710        C  0.03770059  0.60910751  0.94199271    -0.20000
C711        C  0.00405039  0.57788532  0.94535934    -0.21200
C712        C  0.98260165  0.56758968  0.94128561    -0.19800
C713        C  0.97256330  0.57833542  0.92868275     0.19400
C714        C  0.98417611  0.60008483  0.92040453     0.01500
C715        C  0.97300596  0.60988720  0.90696311    -0.14500
C716        C  0.95128593  0.59849603  0.90190372    -0.12200
C717        C  0.94000737  0.57703782  0.91017091     0.01100
C718        C  0.95089542  0.56722731  0.92388518    -0.24400
H719        H  0.05048864  0.65892811  0.92015195     0.09100
H720        H  0.01326278  0.64249817  0.91108508     0.12600
H721        H  0.04470805  0.59992671  0.95093159     0.11400
H722        H  0.01133047  0.56902925  0.95477954     0.12600
H723        H  0.97379906  0.55100590  0.94763059     0.11600
H724        H  0.98067931  0.62627012  0.89960867     0.08700
H725        H  0.94334307  0.60647605  0.89099351     0.11900
H726        H  0.94248152  0.55064961  0.93045889     0.13800
C727        C  0.05123176  0.62822276  0.43019420    -0.01700
C728        C  0.04055398  0.60691787  0.41989495    -0.09700
C729        C  0.01917829  0.59606504  0.41271860    -0.18600
C730        C  0.00738853  0.60608212  0.41568139     0.03800
C731        C  0.01820987  0.62784426  0.42444431     0.18000
C732        C  0.03993301  0.63869343  0.43175261    -0.20000
C733        C  0.00719707  0.63852648  0.42625943    -0.21200
C734        C  0.98567877  0.62801611  0.42032524    -0.15000
C735        C  0.97448147  0.60645092  0.41306633     0.19400
C736        C  0.98525395  0.59521387  0.41064437     0.01500
C737        C  0.97335334  0.57345742  0.40424209    -0.14500
C738        C  0.95179551  0.56327978  0.40086010    -0.12200
C739        C  0.94102183  0.57421209  0.40329167     0.01100
C740        C  0.95256231  0.59595512  0.40889569    -0.24400
H741        H  0.04874176  0.59836288  0.41767216     0.09100
H742        H  0.01239518  0.57978604  0.40496394     0.12600
H743        H  0.04796158  0.65520258  0.43917263     0.11400
H744        H  0.01527429  0.65513894  0.43254490     0.12600
H745        H  0.97769179  0.63678368  0.42214219     0.11600
H746        H  0.98014777  0.56368594  0.40236132     0.08700
H747        H  0.94350021  0.54654956  0.39618389     0.11900
H748        H  0.94449853  0.60464960  0.41081259     0.13800
C749        C  0.11083561  0.67303378  0.57801652    -0.01700
C750        C  0.12818625  0.69055926  0.59548425    -0.09700
C751        C  0.12966130  0.69451533  0.63975675    -0.18600
C752        C  0.11361504  0.68106713  0.66806131     0.03800
C753        C  0.09542652  0.66409382  0.64970194     0.18000
C754        C  0.09433358  0.66006647  0.60517788    -0.20000
C755        C  0.07866534  0.65092456  0.67602788    -0.21200
C756        C  0.07990647  0.65366893  0.72051905    -0.19800
C757        C  0.09814573  0.66929625  0.73984245     0.19400
C758        C  0.11521644  0.68339079  0.71390002     0.01500
C759        C  0.13358326  0.69835979  0.73509493    -0.14500
C760        C  0.13541443  0.69825697  0.77984605    -0.12200
C761        C  0.11881625  0.68384277  0.80494176     0.01100
C762        C  0.09990546  0.67005124  0.78501884    -0.24400
H763        H  0.14105918  0.70086271  0.57498873     0.09100
H764        H  0.14363771  0.70812767  0.65083362     0.12600
H765        H  0.08070251  0.64666073  0.59165841     0.11400
H766        H  0.06462679  0.63816572  0.66217071     0.12600
H767        H  0.06681968  0.64293105  0.74007177     0.11600
H768        H  0.14721805  0.70959550  0.71794569     0.08700
H769        H  0.15015396  0.70901909  0.79486962     0.11900
H770        H  0.08713946  0.65866817  0.80447045     0.13800
C771        C  0.11332763  0.67160916  0.07716317    -0.01700
C772        C  0.13135139  0.68818422  0.09518310    -0.09700
C773        C  0.13350941  0.69108908  0.13987780    -0.18600
C774        C  0.11745701  0.67758520  0.16815765     0.03800
C775        C  0.09872794  0.66150660  0.14952511     0.18000
C776        C  0.09698562  0.65843894  0.10455746    -0.20000
C777        C  0.08193260  0.64843701  0.17591253    -0.21200
C778        C  0.08343014  0.65074218  0.22053988    -0.19800
C779        C  0.10198267  0.66573714  0.24002786     0.19400
C780        C  0.11935088  0.67928624  0.21414946     0.01500
C781        C  0.13808726  0.69334749  0.23548754    -0.14500
C782        C  0.13963253  0.69349360  0.28041327    -0.12200
C783        C  0.12247270  0.68016930  0.30566514     0.01100
C784        C  0.10353658  0.66667824  0.28531854    -0.24400
H785        H  0.14415382  0.69859108  0.07465400     0.09100
H786        H  0.14790504  0.70407523  0.15129965     0.12600
H787        H  0.08286032  0.64573383  0.09079943     0.11400
H788        H  0.06752897  0.63629528  0.16192760     0.12600
H789        H  0.07015593  0.64031363  0.24001353     0.11600
H790        H  0.15206518  0.70383382  0.21831973     0.08700
H791        H  0.15446493  0.70388011  0.29553191     0.11900
H792        H  0.09033676  0.65597791  0.30470630     0.13800
C793        C  0.94113961  0.37971215  0.67188819    -0.01700
C794        C  0.95184686  0.40058879  0.65884495    -0.09700
C795        C  0.97335095  0.41143653  0.65424529    -0.18600
C796        C  0.98518826  0.40181326  0.66264170     0.03800
C797        C  0.97436027  0.38039617  0.67405498     0.18000
C798        C  0.95251714  0.36957639  0.67886182    -0.20000
C799        C  0.98546647  0.37002955  0.68071367    -0.21200
C800        C  0.00704911  0.38046386  0.67606998    -0.19800
C801        C  0.01820177  0.40170096  0.66574656     0.19400
C802        C  0.00736089  0.41270623  0.65975411     0.01500
C803        C  0.01918948  0.43429227  0.65181097    -0.14500
C804        C  0.04070884  0.44441839  0.64872352    -0.12200
C805        C  0.05151673  0.43360864  0.65313898     0.01100
C806        C  0.04011610  0.41212240  0.66173021    -0.24400
H807        H  0.94357530  0.40880898  0.65247904     0.09100
H808        H  0.98017497  0.42733557  0.64371685     0.12600
H809        H  0.94444530  0.35337685  0.68855915     0.11400
H810        H  0.97738763  0.35368339  0.68927409     0.12600
H811        H  0.01509532  0.37190758  0.68106407     0.11600
H812        H  0.01236011  0.44397582  0.64844230     0.08700
H813        H  0.04894172  0.46099914  0.64237920     0.11900
H814        H  0.04826788  0.40361377  0.66591098     0.13800
C815        C  0.15726933  0.54025855  0.59312947    -0.01700
C816        C  0.16034348  0.54383162  0.54881084    -0.09700
C817        C  0.16378685  0.56262368  0.53126027    -0.18600
C818        C  0.16313019  0.57791908  0.55755271     0.03800
C819        C  0.16057478  0.57432217  0.60267055     0.18000
C820        C  0.15855213  0.55603917  0.62006499    -0.20000
C821        C  0.15836165  0.58815022  0.62983127    -0.21200
C822        C  0.15688635  0.60460350  0.61271568    -0.19800
C823        C  0.15859919  0.60817280  0.56825390     0.19400
C824        C  0.16309241  0.59570068  0.54041335     0.01500
C825        C  0.16630152  0.60098086  0.49630967    -0.14500
C826        C  0.16284143  0.61640234  0.47983286    -0.12200
C827        C  0.15596483  0.62694471  0.50661594     0.01100
C828        C  0.15478058  0.62341974  0.55112844    -0.24400
H829        H  0.15925819  0.53173855  0.52752054     0.09100
H830        H  0.16540499  0.56407061  0.49671767     0.12600
H831        H  0.15578002  0.55317976  0.65437260     0.11400
H832        H  0.15653612  0.58551200  0.66430845     0.12600
H833        H  0.15388245  0.61428011  0.63427950     0.11600
H834        H  0.17097936  0.59311266  0.47362590     0.08700
H835        H  0.16421204  0.61905071  0.44535319     0.11900
H836        H  0.14989545  0.63181714  0.57218322     0.13800
C837        C  0.11339042  0.52205522  0.73104703    -0.01700
C838        C  0.11036581  0.51942547  0.77563065    -0.09700
C839        C  0.10866516  0.53415288  0.80081448    -0.18600
C840        C  0.11049987  0.55239564  0.78222178     0.03800
C841        C  0.11365996  0.55500526  0.73694808     0.18000
C842        C  0.11460482  0.53971354  0.71184566    -0.20000
C843        C  0.11649130  0.57315828  0.71714054    -0.21200
C844        C  0.11691566  0.58912151  0.74150036    -0.19800
C845        C  0.11385109  0.58708919  0.78616160     0.19400
C846        C  0.11000627  0.56844392  0.80699197     0.01500
C847        C  0.10605763  0.56679879  0.85178371    -0.14500
C848        C  0.10685505  0.58327748  0.87515238    -0.12200
C849        C  0.11169130  0.60206337  0.85500926     0.01100
C850        C  0.11487836  0.60371419  0.81023293    -0.24400
H851        H  0.10945318  0.50596190  0.79117928     0.09100
H852        H  0.10656870  0.53112353  0.83492774     0.12600
H853        H  0.11726536  0.54206230  0.67741661     0.11400
H854        H  0.11884793  0.57522998  0.68262581     0.12600
H855        H  0.11967596  0.60317604  0.72526003     0.11600
H856        H  0.10236781  0.55298711  0.86977931     0.08700
H857        H  0.10423497  0.58144391  0.90961416     0.11900
H858        H  0.11846678  0.61806870  0.79413190     0.13800
C859        C  0.94117108  0.37961615  0.17722823    -0.01700
C860        C  0.95158788  0.36836503  0.17925342    -0.09700
C861        C  0.97308921  0.37830197  0.17274669    -0.18600
C862        C  0.98486348  0.39993461  0.16419516     0.03800
C863        C  0.97404477  0.41109009  0.16140826     0.18000
C864        C  0.95254436  0.40091281  0.16760749    -0.20000
C865        C  0.98473679  0.43248166  0.15318133    -0.21200
C866        C  0.00614015  0.44326688  0.14866626    -0.19800
C867        C  0.01734374  0.43288838  0.15195769     0.19400
C868        C  0.00694782  0.41103500  0.15906297     0.01500
C869        C  0.01919505  0.40142241  0.16113960    -0.14500
C870        C  0.04085245  0.41314484  0.15721435    -0.12200
C871        C  0.05094094  0.43474420  0.15143916     0.01100
C872        C  0.03899567  0.44440645  0.14846798    -0.24400
H873        H  0.94314318  0.35186454  0.18635892     0.09100
H874        H  0.98007987  0.36871321  0.17520719     0.12600
H875        H  0.94469044  0.40981618  0.16558981     0.11400
H876        H  0.97651331  0.44100755  0.15084866     0.12600
H877        H  0.01401217  0.45990053  0.14291019     0.11600
H878        H  0.01250712  0.38491169  0.16585806     0.08700
H879        H  0.04974162  0.40530316  0.15921113     0.11900
H880        H  0.04658156  0.46107545  0.14324086     0.13800
C881        C  0.15662801  0.62850933  0.99581596    -0.01700
C882        C  0.16162969  0.61639796  0.96927781    -0.09700
C883        C  0.16508579  0.60119034  0.98690317    -0.18600
C884        C  0.16365681  0.59770896  0.03183974     0.03800
C885        C  0.16136447  0.61191549  0.05884080     0.18000
C886        C  0.15764287  0.62701182  0.04065177    -0.20000
C887        C  0.16146277  0.61007886  0.10371223    -0.21200
C888        C  0.16229213  0.59352025  0.12229633    -0.19800
C889        C  0.16220631  0.57801535  0.09638117     0.19400
C890        C  0.16316794  0.58000144  0.05074672     0.01500
C891        C  0.16167875  0.56328541  0.02592483    -0.14500
C892        C  0.15778665  0.54478359  0.04551415    -0.12200
C893        C  0.15612556  0.54268178  0.09034528     0.01100
C894        C  0.15945119  0.55975247  0.11569990    -0.24400
H895        H  0.16129347  0.61753543  0.93449139     0.09100
H896        H  0.16816828  0.59196875  0.96449783     0.12600
H897        H  0.15426147  0.63671645  0.06133558     0.11400
H898        H  0.16019827  0.62112137  0.12453506     0.12600
H899        H  0.16170386  0.59216135  0.15712336     0.11600
H900        H  0.16198058  0.56345095  0.99118543     0.08700
H901        H  0.15515610  0.53172499  0.02540656     0.11900
H902        H  0.15780673  0.55808024  0.15044100     0.13800
C903        C  0.11144498  0.52275053  0.23215270    -0.01700
C904        C  0.10604203  0.51840266  0.27559474    -0.09700
C905        C  0.10446279  0.53288155  0.30175986    -0.18600
C906        C  0.10897615  0.55248326  0.28530552     0.03800
C907        C  0.11444859  0.55665368  0.24104726     0.18000
C908        C  0.11510861  0.54164826  0.21486196    -0.20000
C909        C  0.12002364  0.57606716  0.22342817    -0.21200
C910        C  0.12086318  0.59176425  0.24914250    -0.19800
C911        C  0.11565964  0.58824609  0.29282567     0.19400
C912        C  0.10910739  0.56841040  0.31137834     0.01500
C913        C  0.10338391  0.56558110  0.35536325    -0.14500
C914        C  0.10517198  0.58207315  0.38029537    -0.12200
C915        C  0.11264020  0.60184891  0.36226484     0.01100
C916        C  0.11741497  0.60466522  0.31826501    -0.24400
H917        H  0.10322337  0.50383884  0.28941785     0.09100
H918        H  0.10041192  0.52857606  0.33499193     0.12600
H919        H  0.11965129  0.54517403  0.18132752     0.11400
H920        H  0.12426891  0.57930800  0.18973593     0.12600
H921        H  0.12575975  0.60681884  0.23480973     0.11600
H922        H  0.09764425  0.55088092  0.37152355     0.08700
H923        H  0.10118115  0.57942015  0.41416637     0.11900
H924        H  0.12297848  0.61984096  0.30385454     0.13800
C925        C  0.11935750  0.44926611  0.78666296    -0.01700
C926        C  0.09949799  0.44148080  0.80411714    -0.09700
C927        C  0.09662070  0.44011771  0.84879993    -0.18600
C928        C  0.11364370  0.44642064  0.87728657     0.03800
C929        C  0.13342339  0.45269473  0.85902586     0.18000
C930        C  0.13611632  0.45427104  0.81421850    -0.20000
C931        C  0.15059300  0.45805739  0.88556052    -0.21200
C932        C  0.14873174  0.45794054  0.93009138    -0.19800
C933        C  0.12981585  0.45308961  0.94908830     0.19400
C934        C  0.11196188  0.44729683  0.92304571     0.01500
C935        C  0.09355855  0.44370864  0.94384121    -0.14500
C936        C  0.09319893  0.44650071  0.98833162    -0.12200
C937        C  0.11086772  0.45222789  0.01355263     0.01100
C938        C  0.12893092  0.45492426  0.99395374    -0.24400
H939        H  0.08632677  0.43746525  0.78324588     0.09100
H940        H  0.08099106  0.43437792  0.86007063     0.12600
H941        H  0.15147697  0.46003849  0.80070886     0.11400
H942        H  0.16564677  0.46263003  0.87175414     0.12600
H943        H  0.16238102  0.46239586  0.94976863     0.11600
H944        H  0.07947023  0.43957839  0.92643269     0.08700
H945        H  0.07909007  0.44437590  0.00308972     0.11900
H946        H  0.14272289  0.45968900  0.01342573     0.13800
C947        C  0.12018993  0.45174068  0.28544572    -0.01700
C948        C  0.13657171  0.45321756  0.31021729    -0.09700
C949        C  0.13475943  0.45071224  0.35493697    -0.18600
C950        C  0.11664120  0.44740751  0.37657894     0.03800
C951        C  0.09998288  0.44577781  0.35109586     0.18000
C952        C  0.10168905  0.44738668  0.30589579    -0.20000
C953        C  0.08215192  0.44361110  0.37099654    -0.21200
C954        C  0.08088673  0.44401694  0.41570732    -0.19800
C955        C  0.09716505  0.44599125  0.44167480     0.19400
C956        C  0.11490320  0.44683150  0.42259009     0.01500
C957        C  0.13033821  0.44762002  0.45048425    -0.14500
C958        C  0.12888445  0.44900667  0.49522404    -0.12200
C959        C  0.11215498  0.44981863  0.51357546     0.01100
C960        C  0.09607815  0.44774270  0.48663583    -0.24400
H961        H  0.15104782  0.45674972  0.29492182     0.09100
H962        H  0.14817522  0.45242927  0.37182805     0.12600
H963        H  0.08914428  0.44669885  0.28684145     0.11400
H964        H  0.06940249  0.44236446  0.35183380     0.12600
H965        H  0.06718778  0.44307213  0.43007482     0.11600
H966        H  0.14381877  0.44740143  0.43867789     0.08700
H967        H  0.14136746  0.45033629  0.51541614     0.11900
H968        H  0.08284257  0.44791189  0.50067587     0.13800
C969        C  0.27841324  0.47124491  0.61044065    -0.01700
C970        C  0.27833707  0.49006367  0.61154243    -0.09700
C971        C  0.26006819  0.49046470  0.61916335    -0.18600
C972        C  0.24092539  0.47191466  0.62619657     0.03800
C973        C  0.24098638  0.45282298  0.62584146     0.18000
C974        C  0.25958104  0.45262685  0.61789031    -0.20000
C975        C  0.22244176  0.43405366  0.63317733    -0.21200
C976        C  0.20380318  0.43378980  0.64014277    -0.19800
C977        C  0.20311172  0.45228324  0.63987748     0.19400
C978        C  0.22174163  0.47162784  0.63319815     0.01500
C979        C  0.22033105  0.48986594  0.63341290    -0.14500
C980        C  0.20134884  0.48897047  0.63937311    -0.12200
C981        C  0.18284660  0.46995016  0.64554554     0.01100
C982        C  0.18391775  0.45158368  0.64601306    -0.24400
H983        H  0.29253109  0.50471277  0.60607660     0.09100
H984        H  0.26150609  0.50561676  0.61916846     0.12600
H985        H  0.25935971  0.43793958  0.61749033     0.11400
H986        H  0.22231550  0.41941682  0.63326237     0.12600
H987        H  0.18977504  0.41896109  0.64543542     0.11600
H988        H  0.23361541  0.50516286  0.62886123     0.08700
H989        H  0.20126435  0.50349255  0.63909624     0.11900
H990        H  0.16985237  0.43675358  0.65107328     0.13800
C991        C  0.18143978  0.47319917  0.13825103    -0.01700
C992        C  0.20065364  0.49170706  0.14130689    -0.09700
C993        C  0.21920598  0.49182200  0.13493872    -0.18600
C994        C  0.21927751  0.47330584  0.12496401     0.03800
C995        C  0.19979525  0.45476953  0.11903636     0.18000
C996        C  0.18110508  0.45478122  0.12632838    -0.20000
C997        C  0.19916944  0.43638428  0.10609148    -0.21200
C998        C  0.21747684  0.43595950  0.09961641    -0.19800
C999        C  0.23689587  0.45373979  0.10718922     0.19400
C1000       C  0.23800179  0.47259772  0.12049924     0.01500
C1001       C  0.25779550  0.48985546  0.12980055    -0.14500
C1002       C  0.27574208  0.48869673  0.12470405    -0.12200
C1003       C  0.27482047  0.47036355  0.11020486     0.01100
C1004       C  0.25523834  0.45280716  0.10184386    -0.24400
H1005       H  0.20144968  0.50625935  0.14957112     0.09100
H1006       H  0.23323862  0.50673340  0.13777382     0.12600
H1007       H  0.16632298  0.44046549  0.12273236     0.11400
H1008       H  0.18441248  0.42223276  0.10085286     0.12600
H1009       H  0.21642237  0.42150629  0.08939178     0.11600
H1010       H  0.25996985  0.50444451  0.14174148     0.08700
H1011       H  0.29053751  0.50241964  0.13215767     0.11900
H1012       H  0.25425986  0.43848043  0.09088415     0.13800
C1013       C  0.31669328  0.44956462  0.96741931    -0.01700
C1014       C  0.30105154  0.44927060  0.94202906    -0.09700
C1015       C  0.30104982  0.44696353  0.89728784    -0.18600
C1016       C  0.31730704  0.44574916  0.87647625     0.03800
C1017       C  0.33301889  0.44583879  0.90276507     0.18000
C1018       C  0.33224979  0.44717035  0.94782861    -0.20000
C1019       C  0.34997731  0.44568193  0.88388959    -0.21200
C1020       C  0.35219749  0.44638146  0.83936289    -0.19800
C1021       C  0.33725478  0.44674372  0.81261784     0.19400
C1022       C  0.31919285  0.44563730  0.83060523     0.01500
C1023       C  0.30417257  0.44511459  0.80183223    -0.14500
C1024       C  0.30765722  0.44706360  0.75733730    -0.12200
C1025       C  0.32616723  0.44963417  0.74018574     0.01100
C1026       C  0.34061362  0.44885847  0.76796067    -0.24400
H1027       H  0.28898717  0.45123398  0.95684921     0.09100
H1028       H  0.28866580  0.44716748  0.87978338     0.12600
H1029       H  0.34459482  0.44781830  0.96755209     0.11400
H1030       H  0.36199693  0.44576988  0.90374043     0.12600
H1031       H  0.36588150  0.44698441  0.82576725     0.11600
H1032       H  0.28970731  0.44348159  0.81275076     0.08700
H1033       H  0.29614453  0.44733760  0.73644535     0.11900
H1034       H  0.35480097  0.45038221  0.75485796     0.13800
C1035       C  0.32350982  0.44729789  0.23934962    -0.01700
C1036       C  0.33614779  0.44208822  0.26333241    -0.09700
C1037       C  0.33405610  0.43975788  0.30798320    -0.18600
C1038       C  0.31954950  0.44321153  0.33038721     0.03800
C1039       C  0.30635401  0.44794678  0.30566785     0.18000
C1040       C  0.30810812  0.44944741  0.26047494    -0.20000
C1041       C  0.29223623  0.45222674  0.32634098    -0.21200
C1042       C  0.29171331  0.45304900  0.37108275    -0.19800
C1043       C  0.30493778  0.44911027  0.39626023     0.19400
C1044       C  0.31844748  0.44327996  0.37642434     0.01500
C1045       C  0.33076030  0.43851283  0.40362248    -0.14500
C1046       C  0.33067629  0.44086403  0.44837399    -0.12200
C1047       C  0.31850384  0.44815292  0.46724892     0.01100
C1048       C  0.30527928  0.45172620  0.44116252    -0.24400
H1049       H  0.34808684  0.44025852  0.24748986     0.09100
H1050       H  0.34464308  0.43615281  0.32415807     0.12600
H1051       H  0.29844291  0.45370162  0.24204196     0.11400
H1052       H  0.28207885  0.45575705  0.30777093     0.12600
H1053       H  0.28116435  0.45719889  0.38609182     0.11600
H1054       H  0.34087521  0.43329262  0.39128700     0.08700
H1055       H  0.34098537  0.43800775  0.46808630     0.11900
H1056       H  0.29565218  0.45715633  0.45583068     0.13800
C1057       C  0.47721151  0.60194820  0.90411928    -0.01700
C1058       C  0.47740762  0.60439127  0.94892151    -0.09700
C1059       C  0.46268580  0.58846157  0.97483436    -0.18600
C1060       C  0.44695676  0.56953757  0.95657410     0.03800
C1061       C  0.44722737  0.56687953  0.91121144     0.18000
C1062       C  0.46240259  0.58289497  0.88563269    -0.20000
C1063       C  0.43193477  0.54853601  0.89142435    -0.21200
C1064       C  0.41588332  0.53302594  0.91551435    -0.19800
C1065       C  0.41483487  0.53537394  0.96006695     0.19400
C1066       C  0.43063212  0.55345148  0.98142495     0.01500
C1067       C  0.42912676  0.55482550  0.02661375    -0.14500
C1068       C  0.41241188  0.53924013  0.04932302    -0.12200
C1069       C  0.39648745  0.52188577  0.02794956     0.01100
C1070       C  0.39785361  0.51992844  0.98332548    -0.24400
H1071       H  0.48877232  0.61888592  0.96403578     0.09100
H1072       H  0.46374361  0.59170744  0.00889949     0.12600
H1073       H  0.46205336  0.58084067  0.85094616     0.11400
H1074       H  0.43211658  0.54637027  0.85688060     0.12600
H1075       H  0.40404329  0.51921458  0.89907518     0.11600
H1076       H  0.44048055  0.56781488  0.04540834     0.08700
H1077       H  0.41162078  0.54115273  0.08379989     0.11900
H1078       H  0.38561319  0.50645255  0.96668033     0.13800
C1079       C  0.45923044  0.62695260  0.75685160    -0.01700
C1080       C  0.44115860  0.61628268  0.78167517    -0.09700
C1081       C  0.42264071  0.60096914  0.76304839    -0.18600
C1082       C  0.42176535  0.59587781  0.71888342     0.03800
C1083       C  0.43944963  0.60858696  0.69300305     0.18000
C1084       C  0.45798208  0.62388486  0.71217056    -0.20000
C1085       C  0.43897757  0.60504328  0.64860697    -0.21200
C1086       C  0.42175142  0.58828495  0.62971038    -0.19800
C1087       C  0.40497109  0.57431854  0.65508278     0.19400
C1088       C  0.40456026  0.57795724  0.69998703     0.01500
C1089       C  0.38788519  0.56253897  0.72457008    -0.14500
C1090       C  0.37321850  0.54362479  0.70580613    -0.12200
C1091       C  0.37417088  0.54006564  0.66183631     0.01100
C1092       C  0.38942068  0.55587044  0.63631883    -0.24400
H1093       H  0.44165612  0.61866483  0.81623956     0.09100
H1094       H  0.40950081  0.59290495  0.78424601     0.12600
H1095       H  0.47182605  0.63245471  0.69266800     0.11400
H1096       H  0.45227969  0.61487999  0.62860527     0.12600
H1097       H  0.42209489  0.58553819  0.59544336     0.11600
H1098       H  0.38657547  0.56402576  0.75883526     0.08700
H1099       H  0.36154997  0.53147923  0.72593666     0.11900
H1100       H  0.39042317  0.55295911  0.60233629     0.13800
C1101       C  0.54848232  0.67068503  0.68497558    -0.01700
C1102       C  0.55250299  0.68972596  0.66755688    -0.09700
C1103       C  0.55427984  0.69298260  0.62301283    -0.18600
C1104       C  0.55212377  0.67720272  0.59423147     0.03800
C1105       C  0.54939644  0.65842132  0.61224344     0.18000
C1106       C  0.54744173  0.65528318  0.65708638    -0.20000
C1107       C  0.54809109  0.64264778  0.58533986    -0.21200
C1108       C  0.54880463  0.64483607  0.54076543    -0.19800
C1109       C  0.55033715  0.66263638  0.52194144     0.19400
C1110       C  0.55203511  0.67912412  0.54833598     0.01500
C1111       C  0.55247315  0.69628980  0.52761638    -0.14500
C1112       C  0.55035248  0.69655819  0.48286305    -0.12200
C1113       C  0.54859474  0.68022723  0.45732697     0.01100
C1114       C  0.54917506  0.66359646  0.47684422    -0.24400
H1115       H  0.55360488  0.70197602  0.68836277     0.09100
H1116       H  0.55715240  0.70794647  0.61208769     0.12600
H1117       H  0.54469081  0.64061040  0.67023373     0.11400
H1118       H  0.54623213  0.62838334  0.59886124     0.12600
H1119       H  0.54746465  0.63220745  0.52084468     0.11600
H1120       H  0.55348041  0.70928756  0.54520323     0.08700
H1121       H  0.54969487  0.70940948  0.46814305     0.11900
H1122       H  0.54731372  0.65070809  0.45702331     0.13800
C1123       C  0.54864454  0.67586449  0.18459252    -0.01700
C1124       C  0.54598194  0.69168390  0.16704648    -0.09700
C1125       C  0.54751738  0.69517169  0.12257745    -0.18600
C1126       C  0.55206655  0.68301955  0.09431926     0.03800
C1127       C  0.55662704  0.66831498  0.11287548     0.18000
C1128       C  0.55448830  0.66459858  0.15749799    -0.20000
C1129       C  0.56273033  0.65699938  0.08665139    -0.21200
C1130       C  0.56352999  0.65929306  0.04208741    -0.19800
C1131       C  0.55750713  0.67237854  0.02257254     0.19400
C1132       C  0.55170501  0.68447557  0.04839580     0.01500
C1133       C  0.54456754  0.69649076  0.02711145    -0.14500
C1134       C  0.54240258  0.69574552  0.98231060    -0.12200
C1135       C  0.54788720  0.68359982  0.95714060     0.01100
C1136       C  0.55612137  0.67252435  0.97735592    -0.24400
H1137       H  0.54179280  0.70079711  0.18760245     0.09100
H1138       H  0.54493431  0.70737125  0.11124613     0.12600
H1139       H  0.55708688  0.65269188  0.17116598     0.11400
H1140       H  0.56662385  0.64606360  0.10066681     0.12600
H1141       H  0.56802003  0.65007025  0.02265542     0.11600
H1142       H  0.53951463  0.70576178  0.04429840     0.08700
H1143       H  0.53590327  0.70434072  0.96729482     0.11900
H1144       H  0.56001506  0.66278199  0.95806464     0.13800
C1145       C  0.40090513  0.51973801  0.52513604    -0.01700
C1146       C  0.40121260  0.51705920  0.48051653    -0.09700
C1147       C  0.41800175  0.53139149  0.45564109    -0.18600
C1148       C  0.43484307  0.54936797  0.47454748     0.03800
C1149       C  0.43461131  0.55186886  0.51997090     0.18000
C1150       C  0.41803377  0.53685103  0.54481811    -0.20000
C1151       C  0.45035130  0.56987881  0.54001868    -0.21200
C1152       C  0.46559565  0.58606244  0.51560456    -0.19800
C1153       C  0.46588384  0.58436240  0.47065361     0.19400
C1154       C  0.45116389  0.56555862  0.44975340     0.01500
C1155       C  0.45301327  0.56409050  0.40470980    -0.14500
C1156       C  0.46750196  0.58120763  0.38095129    -0.12200
C1157       C  0.48067669  0.60037523  0.40108630     0.01100
C1158       C  0.48030986  0.60159553  0.44626119    -0.24400
H1159       H  0.38821495  0.50396798  0.46462626     0.09100
H1160       H  0.41685536  0.52847112  0.42141382     0.12600
H1161       H  0.41785539  0.53921607  0.57931106     0.11400
H1162       H  0.45033864  0.57186575  0.57466095     0.12600
H1163       H  0.47698933  0.60017032  0.53192702     0.11600
H1164       H  0.44325502  0.55000492  0.38680602     0.08700
H1165       H  0.46775675  0.57960090  0.34626348     0.11900
H1166       H  0.49080972  0.61615905  0.46238776     0.13800
C1167       C  0.45818073  0.62551489  0.26129254    -0.01700
C1168       C  0.44105175  0.61342566  0.28789354    -0.09700
C1169       C  0.42233921  0.59771086  0.27054103    -0.18600
C1170       C  0.42013839  0.59367075  0.22572459     0.03800
C1171       C  0.43674477  0.60751753  0.19853446     0.18000
C1172       C  0.45563260  0.62305726  0.21646868    -0.20000
C1173       C  0.43475629  0.60510499  0.15371025    -0.21200
C1174       C  0.41704967  0.58858821  0.13535790    -0.19800
C1175       C  0.40129037  0.57362540  0.16144660     0.19400
C1176       C  0.40252572  0.57593186  0.20704658     0.01500
C1177       C  0.38694505  0.55956981  0.23197360    -0.14500
C1178       C  0.37166308  0.54115444  0.21244555    -0.12200
C1179       C  0.37086179  0.53886250  0.16756335     0.01100
C1180       C  0.38511435  0.55558988  0.14224199    -0.24400
H1181       H  0.44250302  0.61516424  0.32263124     0.09100
H1182       H  0.41003030  0.58867179  0.29304186     0.12600
H1183       H  0.46868205  0.63259736  0.19559441     0.11400
H1184       H  0.44718208  0.61579391  0.13272310     0.12600
H1185       H  0.41620446  0.58688607  0.10056215     0.11600
H1186       H  0.38698659  0.55996541  0.26671982     0.08700
H1187       H  0.36092758  0.52833860  0.23258614     0.11900
H1188       H  0.38487405  0.55376423  0.10748731     0.13800
C1189       C  0.42145422  0.37322205  0.58572076    -0.01700
C1190       C  0.40005652  0.36277383  0.57716933    -0.09700
C1191       C  0.38849908  0.37272700  0.58371122    -0.18600
C1192       C  0.39811931  0.39358315  0.59880552     0.03800
C1193       C  0.41969721  0.40375958  0.60855986     0.18000
C1194       C  0.43093838  0.39352723  0.60246591    -0.20000
C1195       C  0.43023134  0.42440306  0.62309750    -0.21200
C1196       C  0.42003007  0.43559364  0.62642001    -0.19800
C1197       C  0.39895451  0.42631887  0.61597118     0.19400
C1198       C  0.38744555  0.40501644  0.60328818     0.01500
C1199       C  0.36593609  0.39636677  0.59502025    -0.14500
C1200       C  0.35656754  0.40864887  0.59747418    -0.12200
C1201       C  0.36835707  0.42990451  0.60770225     0.01100
C1202       C  0.38945389  0.43845357  0.61761790    -0.24400
H1203       H  0.39232025  0.34705974  0.56434549     0.09100
H1204       H  0.37221403  0.36393780  0.57560222     0.12600
H1205       H  0.44742989  0.40175657  0.60976097     0.11400
H1206       H  0.44665337  0.43215419  0.63084903     0.12600
H1207       H  0.42878022  0.45173691  0.63669835     0.11600
H1208       H  0.35601707  0.38021119  0.58643794     0.08700
H1209       H  0.34013677  0.40158693  0.59046571     0.11900
H1210       H  0.39861403  0.45474199  0.62676597     0.13800
C1211       C  0.42225061  0.37675678  0.08043165    -0.01700
C1212       C  0.43262643  0.39746643  0.09501109    -0.09700
C1213       C  0.42219418  0.40835999  0.10098658    -0.18600
C1214       C  0.40071010  0.39900925  0.09249699     0.03800
C1215       C  0.38992490  0.37785198  0.07868716     0.18000
C1216       C  0.40072648  0.36689730  0.07279876    -0.20000
C1217       C  0.36851354  0.36793371  0.07047287    -0.21200
C1218       C  0.35768104  0.37862289  0.07526338    -0.19800
C1219       C  0.36797342  0.39959244  0.08807862     0.19400
C1220       C  0.38967335  0.41002748  0.09689789     0.01500
C1221       C  0.39953315  0.43120591  0.10917229    -0.14500
C1222       C  0.38852189  0.44166463  0.11184306    -0.12200
C1223       C  0.36718725  0.43157075  0.10291819     0.01100
C1224       C  0.35685473  0.41034315  0.09162370    -0.24400
H1225       H  0.44915217  0.40554812  0.10171682     0.09100
H1226       H  0.43156525  0.42416261  0.11218354     0.12600
H1227       H  0.39246037  0.35087838  0.06163824     0.11400
H1228       H  0.36008579  0.35180427  0.06006792     0.12600
H1229       H  0.34116065  0.37047774  0.06844943     0.11600
H1230       H  0.41584952  0.44035598  0.11653304     0.08700
H1231       H  0.39691446  0.45793683  0.12125138     0.11900
H1232       H  0.34034592  0.40235266  0.08466621     0.13800
C1233       C  0.44190784  0.33357154  0.93560778    -0.01700
C1234       C  0.44667144  0.31907706  0.91840019    -0.09700
C1235       C  0.44597906  0.31572959  0.87396716    -0.18600
C1236       C  0.44013571  0.32664202  0.84523304     0.03800
C1237       C  0.43414795  0.34045650  0.86320452     0.18000
C1238       C  0.43544219  0.34406917  0.90795783    -0.20000
C1239       C  0.42727244  0.35086003  0.83633486    -0.21200
C1240       C  0.42681302  0.34835785  0.79179672    -0.19800
C1241       C  0.43368356  0.33577637  0.77294690     0.19400
C1242       C  0.44040042  0.32467427  0.79938917     0.01500
C1243       C  0.44792089  0.31280007  0.77872589    -0.14500
C1244       C  0.44954617  0.31272178  0.73392024    -0.12200
C1245       C  0.44324198  0.32394775  0.70810829     0.01100
C1246       C  0.43473720  0.33495214  0.72773650    -0.24400
H1247       H  0.45169596  0.31081490  0.93936058     0.09100
H1248       H  0.45016470  0.30455344  0.86317561     0.12600
H1249       H  0.43150880  0.35513222  0.92133868     0.11400
H1250       H  0.42241321  0.36118340  0.84984096     0.12600
H1251       H  0.42163675  0.35683118  0.77188262     0.11600
H1252       H  0.45345843  0.30407075  0.79626247     0.08700
H1253       H  0.45621411  0.30415920  0.71936101     0.11900
H1254       H  0.43015867  0.34396173  0.70790710     0.13800
C1255       C  0.43902106  0.32465175  0.20818087    -0.01700
C1256       C  0.43075179  0.33615004  0.22639656    -0.09700
C1257       C  0.42862908  0.33674934  0.27110934    -0.18600
C1258       C  0.43457847  0.32562025  0.29901354     0.03800
C1259       C  0.44123110  0.31255582  0.27996464     0.18000
C1260       C  0.44369445  0.31244591  0.23506019    -0.20000
C1261       C  0.44603943  0.30019270  0.30592597    -0.21200
C1262       C  0.44519665  0.30112896  0.35061011    -0.19800
C1263       C  0.44021203  0.31496956  0.37045920     0.19400
C1264       C  0.43478294  0.32741546  0.34499016     0.01500
C1265       C  0.43098865  0.34195542  0.36658815    -0.14500
C1266       C  0.43341115  0.34463389  0.41125972    -0.12200
C1267       C  0.43897584  0.33248354  0.43602374     0.01100
C1268       C  0.44167584  0.31719917  0.41558505    -0.24400
H1269       H  0.42687813  0.34556150  0.20614744     0.09100
H1270       H  0.42253748  0.34625150  0.28290618     0.12600
H1271       H  0.44975902  0.30321576  0.22101928     0.11400
H1272       H  0.45079316  0.28994568  0.29157555     0.12600
H1273       H  0.44930524  0.29157038  0.36978889     0.11600
H1274       H  0.42708054  0.35216073  0.34967442     0.08700
H1275       H  0.43125103  0.35653739  0.42649837     0.11900
H1276       H  0.44628400  0.30796402  0.43457559     0.13800
C1277       C  0.71338876  0.53676516  0.85870413    -0.01700
C1278       C  0.73192257  0.55605164  0.85992963    -0.09700
C1279       C  0.75109826  0.55723505  0.86638241    -0.18600
C1280       C  0.75242090  0.53903552  0.87176106     0.03800
C1281       C  0.73359771  0.51950909  0.86990043     0.18000
C1282       C  0.71445304  0.51856476  0.86360430    -0.20000
C1283       C  0.73393296  0.50096171  0.87436861    -0.21200
C1284       C  0.75255764  0.50132393  0.88085362    -0.19800
C1285       C  0.77135717  0.52024809  0.88330008     0.19400
C1286       C  0.77163513  0.53941796  0.87891417     0.01500
C1287       C  0.79111642  0.55804406  0.88222764    -0.14500
C1288       C  0.80944618  0.55759470  0.88959472    -0.12200
C1289       C  0.80908344  0.53864067  0.89368181     0.01100
C1290       C  0.78988603  0.52003615  0.89036947    -0.24400
H1291       H  0.73163585  0.57037098  0.85598728     0.09100
H1292       H  0.76461226  0.57261945  0.86690619     0.12600
H1293       H  0.70029972  0.50350878  0.86240135     0.11400
H1294       H  0.71965804  0.48602748  0.87285243     0.12600
H1295       H  0.75223509  0.48665816  0.88419676     0.11600
H1296       H  0.79268721  0.57321633  0.87955369     0.08700
H1297       H  0.82399194  0.57220683  0.89210223     0.11900
H1298       H  0.78927319  0.50522493  0.89369502     0.13800
C1299       C  0.61994842  0.57350566  0.85381085    -0.01700
C1300       C  0.63151079  0.59495897  0.84583557    -0.09700
C1301       C  0.62168667  0.60675561  0.84185032    -0.18600
C1302       C  0.59986089  0.59743310  0.84615314     0.03800
C1303       C  0.58829429  0.57568404  0.85461102     0.18000
C1304       C  0.59831764  0.56405692  0.85811670    -0.20000
C1305       C  0.56671581  0.56554749  0.85950572    -0.21200
C1306       C  0.55623753  0.57647216  0.85574121    -0.19800
C1307       C  0.56704770  0.59782126  0.84689769     0.19400
C1308       C  0.58901323  0.60873129  0.84218850     0.01500
C1309       C  0.59898727  0.63035939  0.83340277    -0.14500
C1310       C  0.58753926  0.64051573  0.82851152    -0.12200
C1311       C  0.56583857  0.62952404  0.83238527     0.01100
C1312       C  0.55583588  0.60820659  0.84219949    -0.24400
H1313       H  0.64822405  0.60265014  0.84231390     0.09100
H1314       H  0.63157011  0.62312592  0.83541401     0.12600
H1315       H  0.58915111  0.54750111  0.86463462     0.11400
H1316       H  0.55783887  0.54899300  0.86612015     0.12600
H1317       H  0.53949515  0.56810197  0.85946506     0.11600
H1318       H  0.61558749  0.63978704  0.82969049     0.08700
H1319       H  0.59570445  0.65698313  0.82110142     0.11900
H1320       H  0.53907232  0.59943771  0.84555663     0.13800
C1321       C  0.61738835  0.46631357  0.91809643    -0.01700
C1322       C  0.61676387  0.46441807  0.96301814    -0.09700
C1323       C  0.60144447  0.44628403  0.98291092    -0.18600
C1324       C  0.58570701  0.42975413  0.95829624     0.03800
C1325       C  0.58694684  0.43149871  0.91262094     0.18000
C1326       C  0.60308064  0.44934312  0.89306594    -0.20000
C1327       C  0.57122756  0.41617317  0.88674820    -0.21200
C1328       C  0.55354730  0.39984803  0.90529213    -0.19800
C1329       C  0.55147640  0.39807713  0.95014706     0.19400
C1330       C  0.56799802  0.41236386  0.97728130     0.01500
C1331       C  0.56559959  0.40912811  0.02228789    -0.14500
C1332       C  0.54689487  0.39359751  0.03964464    -0.12200
C1333       C  0.52995439  0.38089312  0.01288245     0.01100
C1334       C  0.53258819  0.38271800  0.96808620    -0.24400
H1335       H  0.62760255  0.47739581  0.98292915     0.09100
H1336       H  0.60156254  0.44625540  0.01765369     0.12600
H1337       H  0.60321269  0.45084541  0.85826320     0.11400
H1338       H  0.57210674  0.41740639  0.85190257     0.12600
H1339       H  0.54118152  0.38882548  0.88439403     0.11600
H1340       H  0.57771147  0.41865514  0.04495418     0.08700
H1341       H  0.54528607  0.39245591  0.07440624     0.11900
H1342       H  0.51961585  0.37277213  0.94718886     0.13800
C1343       C  0.59046257  0.48457429  0.77845950    -0.01700
C1344       C  0.57287837  0.46886218  0.79921522    -0.09700
C1345       C  0.55617570  0.45372702  0.77551259    -0.18600
C1346       C  0.55653204  0.45383220  0.72994556     0.03800
C1347       C  0.57383422  0.47061225  0.70903711     0.18000
C1348       C  0.59064812  0.48569313  0.73336012    -0.20000
C1349       C  0.57450929  0.47188688  0.66399419    -0.21200
C1350       C  0.55866133  0.45643662  0.63913841    -0.19800
C1351       C  0.54197277  0.43916827  0.65874985     0.19400
C1352       C  0.54061867  0.43763551  0.70445521     0.01500
C1353       C  0.52387687  0.41950492  0.72265014    -0.14500
C1354       C  0.50949689  0.40333891  0.69658294    -0.12200
C1355       C  0.51104947  0.40481780  0.65167611     0.01100
C1356       C  0.52703858  0.42299238  0.63290125    -0.24400
H1357       H  0.57232114  0.46774446  0.83407125     0.09100
H1358       H  0.54336053  0.44203849  0.79390258     0.12600
H1359       H  0.60410561  0.49803511  0.71713895     0.11400
H1360       H  0.58753517  0.48475444  0.64786354     0.12600
H1361       H  0.55978206  0.45769058  0.60430976     0.11600
H1362       H  0.52181752  0.41696224  0.75689155     0.08700
H1363       H  0.49727781  0.38941313  0.71171519     0.11900
H1364       H  0.52851791  0.42409997  0.59807858     0.13800
C1365       C  0.71480603  0.53878082  0.36654259    -0.01700
C1366       C  0.73357016  0.55782311  0.36459478    -0.09700
C1367       C  0.75266277  0.55880553  0.37092915    -0.18600
C1368       C  0.75367493  0.54063262  0.37931057     0.03800
C1369       C  0.73458525  0.52137565  0.38150821     0.18000
C1370       C  0.71552415  0.52065006  0.37543808    -0.20000
C1371       C  0.73458845  0.50284483  0.38920521    -0.21200
C1372       C  0.75315376  0.50292223  0.39416406    -0.19800
C1373       C  0.77223000  0.52155896  0.39199029     0.19400
C1374       C  0.77284590  0.54075468  0.38508219     0.01500
C1375       C  0.79262543  0.55913057  0.38423988    -0.14500
C1376       C  0.81093127  0.55838567  0.38957407    -0.12200
C1377       C  0.81021836  0.53935937  0.39555819     0.01100
C1378       C  0.79071179  0.52102953  0.39677922    -0.24400
H1379       H  0.73354871  0.57208235  0.35771940     0.09100
H1380       H  0.76637455  0.57398444  0.36853690     0.12600
H1381       H  0.70117930  0.50578100  0.37700845     0.11400
H1382       H  0.72010775  0.48812044  0.39098031     0.12600
H1383       H  0.75257893  0.48825431  0.39969496     0.11600
H1384       H  0.79445637  0.57432845  0.37972366     0.08700
H1385       H  0.82572825  0.57279457  0.38880415     0.11900
H1386       H  0.78983463  0.50619138  0.40195339     0.13800
C1387       C  0.62268087  0.57670154  0.34379770    -0.01700
C1388       C  0.63414264  0.59854242  0.34612560    -0.09700
C1389       C  0.62437327  0.61036769  0.34088339    -0.18600
C1390       C  0.60268925  0.60062599  0.33339422     0.03800
C1391       C  0.59131631  0.57849879  0.33059261     0.18000
C1392       C  0.60131196  0.56694212  0.33540366    -0.20000
C1393       C  0.56985910  0.56782343  0.32364833    -0.21200
C1394       C  0.55925247  0.57857247  0.31997006    -0.19800
C1395       C  0.56984454  0.60029779  0.32272312     0.19400
C1396       C  0.59172316  0.61180074  0.32903976     0.01500
C1397       C  0.60142465  0.63383514  0.33078255    -0.14500
C1398       C  0.58976329  0.64385173  0.32664833    -0.12200
C1399       C  0.56813670  0.63222766  0.32108546     0.01100
C1400       C  0.55844769  0.61046944  0.31912914    -0.24400
H1401       H  0.65068591  0.60653076  0.35252198     0.09100
H1402       H  0.63408935  0.62705131  0.34341166     0.12600
H1403       H  0.59218897  0.55009114  0.33338013     0.11400
H1404       H  0.56114523  0.55096897  0.32147459     0.12600
H1405       H  0.54257845  0.56978391  0.31498159     0.11600
H1406       H  0.61795919  0.64367499  0.33519876     0.08700
H1407       H  0.59766221  0.66069412  0.32816077     0.11900
H1408       H  0.54177107  0.60121915  0.31439175     0.13800
C1409       C  0.61763902  0.46897909  0.42043931    -0.01700
C1410       C  0.60612012  0.45173033  0.39337147    -0.09700
C1411       C  0.59028705  0.43303274  0.40982605    -0.18600
C1412       C  0.58560612  0.43095548  0.45419482     0.03800
C1413       C  0.59908908  0.44753241  0.48220312     0.18000
C1414       C  0.61467682  0.46654889  0.46509053    -0.20000
C1415       C  0.59622783  0.44532487  0.52685860    -0.21200
C1416       C  0.57955872  0.42745844  0.54407538    -0.19800
C1417       C  0.56481020  0.41193164  0.51690639     0.19400
C1418       C  0.56755910  0.41344828  0.47151329     0.01500
C1419       C  0.55128999  0.39836912  0.44529626    -0.14500
C1420       C  0.53262935  0.38310915  0.46349490    -0.12200
C1421       C  0.53004801  0.38184601  0.50822113     0.01100
C1422       C  0.54655039  0.39573946  0.53474960    -0.24400
H1423       H  0.60833340  0.45307993  0.35875288     0.09100
H1424       H  0.58170190  0.42060639  0.38699666     0.12600
H1425       H  0.62386716  0.47969210  0.48628498     0.11400
H1426       H  0.60668248  0.45766207  0.54853559     0.12600
H1427       H  0.57750257  0.42637527  0.57876091     0.11600
H1428       H  0.55195794  0.39886153  0.41056865     0.08700
H1429       H  0.51994015  0.37269750  0.44252720     0.11900
H1430       H  0.54442086  0.39519496  0.56942765     0.13800
C1431       C  0.66480445  0.55933990  0.49021157    -0.01700
C1432       C  0.68025630  0.55627899  0.50817156    -0.09700
C1433       C  0.68317369  0.55710115  0.55269271    -0.18600
C1434       C  0.67076387  0.56126117  0.58082328     0.03800
C1435       C  0.65628667  0.56610984  0.56220402     0.18000
C1436       C  0.65314565  0.56471761  0.51725569    -0.20000
C1437       C  0.64469341  0.57175765  0.58867928    -0.21200
C1438       C  0.64654655  0.57184397  0.63340120    -0.19800
C1439       C  0.65951057  0.56560722  0.65276152     0.19400
C1440       C  0.67183976  0.56026038  0.62666989     0.01500
C1441       C  0.68385738  0.55302001  0.64749206    -0.14500
C1442       C  0.68304334  0.55043406  0.69204398    -0.12200
C1443       C  0.67071818  0.55544855  0.71760153     0.01100
C1444       C  0.65946183  0.56366243  0.69795816    -0.24400
H1445       H  0.68954388  0.55228633  0.48777540     0.09100
H1446       H  0.69518718  0.55427609  0.56405847     0.12600
H1447       H  0.64140853  0.56748782  0.50333425     0.11400
H1448       H  0.63391255  0.57586662  0.57472272     0.12600
H1449       H  0.63715407  0.57602171  0.65298969     0.11600
H1450       H  0.69331006  0.54827912  0.63015733     0.08700
H1451       H  0.69181435  0.54401515  0.70657768     0.11900
H1452       H  0.64961273  0.56724060  0.71756243     0.13800
C1453       C  0.66560041  0.55658591  0.99019784    -0.01700
C1454       C  0.65678143  0.56584675  0.01500237    -0.09700
C1455       C  0.65956585  0.56771790  0.05964820    -0.18600
C1456       C  0.67070286  0.55960319  0.08109129     0.03800
C1457       C  0.67978380  0.55036506  0.05548066     0.18000
C1458       C  0.67760593  0.54942964  0.01035736    -0.20000
C1459       C  0.69013487  0.54124278  0.07516534    -0.21200
C1460       C  0.69097403  0.54034676  0.11984337    -0.19800
C1461       C  0.68193827  0.54901484  0.14593874     0.19400
C1462       C  0.67228163  0.55939381  0.12702098     0.01500
C1463       C  0.66418194  0.56863281  0.15498907    -0.14500
C1464       C  0.66460454  0.56659606  0.19969889    -0.12200
C1465       C  0.67300158  0.55526339  0.21798956     0.01100
C1466       C  0.68203593  0.54688727  0.19091152    -0.24400
H1467       H  0.64734439  0.57133007  0.99977349     0.09100
H1468       H  0.65205004  0.57477300  0.07657619     0.12600
H1469       H  0.68409701  0.54188258  0.99112656     0.11400
H1470       H  0.69705899  0.53415518  0.05587849     0.12600
H1471       H  0.69853912  0.53259504  0.13409378     0.11600
H1472       H  0.65723014  0.57735559  0.14333515     0.08700
H1473       H  0.65759908  0.57326922  0.21996056     0.11900
H1474       H  0.68881099  0.53830111  0.20484513     0.13800
C1475       C  0.59303418  0.48450849  0.27783932    -0.01700
C1476       C  0.57468684  0.47014193  0.29878195    -0.09700
C1477       C  0.55796582  0.45459158  0.27563331    -0.18600
C1478       C  0.55899509  0.45294771  0.23039583     0.03800
C1479       C  0.57742121  0.46796685  0.20915344     0.18000
C1480       C  0.59423174  0.48339227  0.23294286    -0.20000
C1481       C  0.57906404  0.46739698  0.16430505    -0.21200
C1482       C  0.56282465  0.45215389  0.13996636    -0.19800
C1483       C  0.54469971  0.43687323  0.15996216     0.19400
C1484       C  0.54252786  0.43689561  0.20550235     0.01500
C1485       C  0.52420995  0.42053402  0.22410161    -0.14500
C1486       C  0.50897855  0.40463834  0.19857522    -0.12200
C1487       C  0.51125752  0.40480660  0.15379705     0.01100
C1488       C  0.52897252  0.42117370  0.13465590    -0.24400
H1489       H  0.57339377  0.47056769  0.33351906     0.09100
H1490       H  0.54448341  0.44410116  0.29413676     0.12600
H1491       H  0.60834298  0.49448696  0.21645853     0.11400
H1492       H  0.59302902  0.47882005  0.14791398     0.12600
H1493       H  0.56460308  0.45210521  0.10528056     0.11600
H1494       H  0.52144174  0.41922833  0.25834273     0.08700
H1495       H  0.49545852  0.39201247  0.21397340     0.11900
H1496       H  0.53103096  0.42113854  0.10003050     0.13800
C1497       C  0.52775272  0.72223505  0.80920192    -0.01700
C1498       C  0.50903300  0.72243589  0.80775475    -0.09700
C1499       C  0.50883965  0.74093669  0.80166734    -0.18600
C1500       C  0.52750561  0.76016323  0.79659734     0.03800
C1501       C  0.54648931  0.75996361  0.79751898     0.18000
C1502       C  0.54646410  0.74113844  0.80376227    -0.20000
C1503       C  0.56540258  0.77861110  0.79267792    -0.21200
C1504       C  0.56591913  0.79748277  0.78751911    -0.19800
C1505       C  0.54753132  0.79826229  0.78686924     0.19400
C1506       C  0.52803236  0.77957059  0.79107864     0.01500
C1507       C  0.50991976  0.78115559  0.78975593    -0.14500
C1508       C  0.51112174  0.80040445  0.78502992    -0.12200
C1509       C  0.53033497  0.81889252  0.78122798     0.01100
C1510       C  0.54852502  0.81763608  0.78201953    -0.24400
H1511       H  0.49430392  0.70817717  0.81199133     0.09100
H1512       H  0.49378253  0.73963483  0.80147278     0.12600
H1513       H  0.56105915  0.74125528  0.80471739     0.11400
H1514       H  0.57994964  0.77863254  0.79320272     0.12600
H1515       H  0.58085250  0.81160725  0.78415221     0.11600
H1516       H  0.49452295  0.76780719  0.79223305     0.08700
H1517       H  0.49675991  0.80072453  0.78407839     0.11900
H1518       H  0.56349637  0.83174059  0.77883217     0.13800
C1519       C  0.52730688  0.72230985  0.31266263    -0.01700
C1520       C  0.50858828  0.72243214  0.31062716    -0.09700
C1521       C  0.50841746  0.74086221  0.30369434    -0.18600
C1522       C  0.52710639  0.76004231  0.29838525     0.03800
C1523       C  0.54605363  0.75980224  0.29841900     0.18000
C1524       C  0.54602420  0.74108381  0.30592079    -0.20000
C1525       C  0.56488267  0.77826611  0.29114060    -0.21200
C1526       C  0.56531440  0.79700304  0.28429529    -0.19800
C1527       C  0.54698087  0.79787410  0.28547535     0.19400
C1528       C  0.52763374  0.77939949  0.29294805     0.01500
C1529       C  0.50965661  0.78114329  0.29544297    -0.14500
C1530       C  0.51074345  0.80024077  0.28981452    -0.12200
C1531       C  0.52970586  0.81841024  0.28139742     0.01100
C1532       C  0.54784799  0.81711152  0.27947799    -0.24400
H1533       H  0.49386537  0.70818213  0.31499133     0.09100
H1534       H  0.49334208  0.73949880  0.30245810     0.12600
H1535       H  0.56060280  0.74116006  0.30656860     0.11400
H1536       H  0.57939404  0.77821635  0.29068406     0.12600
H1537       H  0.58014068  0.81097101  0.27861573     0.11600
H1538       H  0.49448580  0.76808638  0.30221804     0.08700
H1539       H  0.49646726  0.80068361  0.29193898     0.11900
H1540       H  0.56264018  0.83103894  0.27324549     0.13800
C1541       C  0.55163480  0.88071163  0.63814862    -0.01700
C1542       C  0.56193680  0.90068641  0.62018155    -0.09700
C1543       C  0.56347857  0.90332516  0.57540342    -0.18600
C1544       C  0.55486610  0.88593179  0.54717052     0.03800
C1545       C  0.54581185  0.86577511  0.56579254     0.18000
C1546       C  0.54403731  0.86335743  0.61073845    -0.20000
C1547       C  0.53812249  0.84808093  0.53946270    -0.21200
C1548       C  0.53888745  0.84990272  0.49484193    -0.19800
C1549       C  0.54669562  0.86939560  0.47544381     0.19400
C1550       C  0.55458969  0.88771229  0.50127778     0.01500
C1551       C  0.56094038  0.90682530  0.48010012    -0.14500
C1552       C  0.55910110  0.90756645  0.43535685    -0.12200
C1553       C  0.55161358  0.88950407  0.41022614     0.01100
C1554       C  0.54585545  0.87055150  0.43034003    -0.24400
H1555       H  0.56802452  0.91433168  0.64076904     0.09100
H1556       H  0.57136599  0.91913165  0.56382547     0.12600
H1557       H  0.53631782  0.84784507  0.62445794     0.11400
H1558       H  0.53137467  0.83269048  0.55349410     0.12600
H1559       H  0.53273461  0.83588247  0.47537137     0.11600
H1560       H  0.56658004  0.92129865  0.49737981     0.08700
H1561       H  0.56337143  0.92231921  0.42029530     0.11900
H1562       H  0.53954121  0.85646257  0.41099202     0.13800
C1563       C  0.55482877  0.89099051  0.91075684    -0.01700
C1564       C  0.55506168  0.87375305  0.92813804    -0.09700
C1565       C  0.55635589  0.87182624  0.97267333    -0.18600
C1566       C  0.55756747  0.88724931  0.00133060     0.03800
C1567       C  0.55901422  0.90548019  0.98321792     0.18000
C1568       C  0.55741313  0.90707889  0.93841856    -0.20000
C1569       C  0.56138698  0.92172854  0.00999374    -0.21200
C1570       C  0.56152761  0.91994157  0.05457468    -0.19800
C1571       C  0.55871313  0.90163162  0.07347031     0.19400
C1572       C  0.55675267  0.88500584  0.04718300     0.01500
C1573       C  0.55284687  0.86643360  0.06789360    -0.14500
C1574       C  0.54997981  0.86416313  0.11249739    -0.12200
C1575       C  0.55173529  0.88053222  0.13795620     0.01100
C1576       C  0.55676951  0.89944730  0.11847813    -0.24400
H1577       H  0.55336575  0.86124963  0.90734162     0.09100
H1578       H  0.55612086  0.85798289  0.98370518     0.12600
H1579       H  0.55770856  0.92069623  0.92511062     0.11400
H1580       H  0.56280167  0.93579167  0.99637030     0.12600
H1581       H  0.56304738  0.93266612  0.07442082     0.11600
H1582       H  0.55092607  0.85304049  0.05035276     0.08700
H1583       H  0.54600262  0.84940110  0.12713936     0.11900
H1584       H  0.55774459  0.91200312  0.13815688     0.13800
C1585       C  0.71489862  0.19065371  0.72739177    -0.01700
C1586       C  0.73141107  0.18974209  0.70799334    -0.09700
C1587       C  0.75076659  0.20778636  0.70241050    -0.18600
C1588       C  0.75418973  0.22751166  0.71566550     0.03800
C1589       C  0.73722623  0.22835793  0.73448489     0.18000
C1590       C  0.71799257  0.21007305  0.74052927    -0.20000
C1591       C  0.73947535  0.24747565  0.74703932    -0.21200
C1592       C  0.75818398  0.26587416  0.74106695    -0.19800
C1593       C  0.77523978  0.26561774  0.72297692     0.19400
C1594       C  0.77366015  0.24644812  0.71051882     0.01500
C1595       C  0.79163953  0.24717106  0.69348866    -0.14500
C1596       C  0.81014112  0.26616626  0.68796615    -0.12200
C1597       C  0.81134180  0.28504181  0.69898055     0.01100
C1598       C  0.79383995  0.28454343  0.71696023    -0.24400
H1599       H  0.72945916  0.17494126  0.69755594     0.09100
H1600       H  0.76268366  0.20581317  0.68733081     0.12600
H1601       H  0.70528748  0.21101524  0.75519218     0.11400
H1602       H  0.72659471  0.24823182  0.76127050     0.12600
H1603       H  0.75932309  0.28043765  0.75073497     0.11600
H1604       H  0.79188045  0.23333602  0.68404809     0.08700
H1605       H  0.82343373  0.26608153  0.67412312     0.11900
H1606       H  0.79460814  0.29901232  0.72604924     0.13800
C1607       C  0.57484941  0.95142642  0.76515314    -0.01700
C1608       C  0.59319253  0.96362311  0.78861740    -0.09700
C1609       C  0.60444968  0.98539036  0.78390421    -0.18600
C1610       C  0.59774320  0.99557583  0.75501707     0.03800
C1611       C  0.57960013  0.98287210  0.73005830     0.18000
C1612       C  0.56839197  0.96120022  0.73555242    -0.20000
C1613       C  0.57241501  0.99183650  0.70017000    -0.21200
C1614       C  0.58258953  0.01325759  0.69494638    -0.19800
C1615       C  0.60010335  0.02631552  0.71978277     0.19400
C1616       C  0.60807821  0.01779623  0.75012629     0.01500
C1617       C  0.62574626  0.03196300  0.77452228    -0.14500
C1618       C  0.63485381  0.05359639  0.76921675    -0.12200
C1619       C  0.62675148  0.06180893  0.73935758     0.01100
C1620       C  0.60945905  0.04793300  0.71461307    -0.24400
H1621       H  0.59842658  0.95639391  0.81183269     0.09100
H1622       H  0.61818929  0.99385982  0.80354079     0.12600
H1623       H  0.55431259  0.95183492  0.71697443     0.11400
H1624       H  0.55868568  0.98219964  0.68087892     0.12600
H1625       H  0.57650733  0.01968579  0.67167819     0.11600
H1626       H  0.63269436  0.02677419  0.79826408     0.08700
H1627       H  0.64820880  0.06391881  0.78877027     0.11900
H1628       H  0.60297794  0.05396906  0.69134450     0.13800
C1629       C  0.71634283  0.19181687  0.22013918    -0.01700
C1630       C  0.71586131  0.20987036  0.20968122    -0.09700
C1631       C  0.73410657  0.22864898  0.20272232    -0.18600
C1632       C  0.75371552  0.23014255  0.20607831     0.03800
C1633       C  0.75423761  0.21167019  0.21491563     0.18000
C1634       C  0.73563066  0.19274977  0.22211259    -0.20000
C1635       C  0.77332389  0.21227781  0.21666178    -0.21200
C1636       C  0.79189922  0.23086431  0.20977577    -0.19800
C1637       C  0.79189157  0.24940772  0.20193741     0.19400
C1638       C  0.77276744  0.24930752  0.20069788     0.01500
C1639       C  0.77350261  0.26847771  0.19477823    -0.14500
C1640       C  0.79229052  0.28683347  0.18911337    -0.12200
C1641       C  0.81112912  0.28693139  0.18896063     0.01100
C1642       C  0.81085383  0.26811619  0.19558374    -0.24400
H1643       H  0.70123480  0.20960961  0.20723063     0.09100
H1644       H  0.73223211  0.24166162  0.19449079     0.12600
H1645       H  0.73620341  0.17882290  0.22966138     0.11400
H1646       H  0.77388513  0.19825947  0.22317567     0.12600
H1647       H  0.80638206  0.23077244  0.21102710     0.11600
H1648       H  0.75986443  0.26996052  0.19488974     0.08700
H1649       H  0.79195792  0.30109614  0.18448507     0.11900
H1650       H  0.82536024  0.26804605  0.19614566     0.13800
C1651       C  0.57059298  0.94997015  0.26361048    -0.01700
C1652       C  0.59233917  0.96070404  0.26681872    -0.09700
C1653       C  0.60401521  0.98235130  0.26034269    -0.18600
C1654       C  0.59420196  0.99398136  0.25074850     0.03800
C1655       C  0.57217807  0.98285623  0.24701974     0.18000
C1656       C  0.56078674  0.96125183  0.25293714    -0.20000
C1657       C  0.56143552  0.99334468  0.23827765    -0.21200
C1658       C  0.57200946  0.01481820  0.23422732    -0.19800
C1659       C  0.59363739  0.02634565  0.23813753     0.19400
C1660       C  0.60520138  0.01619622  0.24557099     0.01500
C1661       C  0.62713755  0.02881948  0.24771700    -0.14500
C1662       C  0.63700256  0.05058355  0.24365878    -0.12200
C1663       C  0.62534198  0.06043794  0.23781159     0.01100
C1664       C  0.60367182  0.04807099  0.23475771    -0.24400
H1665       H  0.60035018  0.95240706  0.27490267     0.09100
H1666       H  0.62063455  0.98962999  0.26382637     0.12600
H1667       H  0.54399902  0.95324399  0.25005851     0.11400
H1668       H  0.54464878  0.98490050  0.23530187     0.12600
H1669       H  0.56316323  0.02248728  0.22817700     0.11600
H1670       H  0.63703110  0.02229129  0.25241139     0.08700
H1671       H  0.65378953  0.05973103  0.24555863     0.11900
H1672       H  0.59443243  0.05538480  0.22938005     0.13800
C1673       C  0.66716603  0.12038386  0.09831672    -0.01700
C1674       C  0.68591844  0.13565980  0.08013938    -0.09700
C1675       C  0.68859919  0.13700960  0.03530156    -0.18600
C1676       C  0.67242361  0.12311368  0.00737531     0.03800
C1677       C  0.65399192  0.10693213  0.02646481     0.18000
C1678       C  0.65166350  0.10563399  0.07126885    -0.20000
C1679       C  0.63744685  0.09265866  0.00082087    -0.21200
C1680       C  0.63818942  0.09481990  0.95644262    -0.19800
C1681       C  0.65556934  0.11119288  0.93669253     0.19400
C1682       C  0.67330032  0.12520010  0.96145377     0.01500
C1683       C  0.69058672  0.14117760  0.93915950    -0.14500
C1684       C  0.68959724  0.14391208  0.89467688    -0.12200
C1685       C  0.67145863  0.13080614  0.87160827     0.01100
C1686       C  0.65482756  0.11417825  0.89241228    -0.24400
H1687       H  0.69820486  0.14715945  0.10048390     0.09100
H1688       H  0.70316002  0.14949447  0.02342078     0.12600
H1689       H  0.63723448  0.09353213  0.08508592     0.11400
H1690       H  0.62348139  0.08017859  0.01529985     0.12600
H1691       H  0.62478768  0.08397829  0.93753146     0.11600
H1692       H  0.70476076  0.15213307  0.95540435     0.08700
H1693       H  0.70259271  0.15687182  0.87872615     0.11900
H1694       H  0.64084056  0.10401762  0.87418933     0.13800
C1695       C  0.67632284  0.13378214  0.37095958    -0.01700
C1696       C  0.67125778  0.11476605  0.39016056    -0.09700
C1697       C  0.67030114  0.11272571  0.43517157    -0.18600
C1698       C  0.67408359  0.12967052  0.46230061     0.03800
C1699       C  0.67978972  0.14901890  0.44241376     0.18000
C1700       C  0.68125679  0.15096132  0.39752880    -0.20000
C1701       C  0.68307477  0.16617628  0.46718146    -0.21200
C1702       C  0.67977751  0.16430518  0.51130987    -0.19800
C1703       C  0.67369897  0.14539846  0.53187297     0.19400
C1704       C  0.67153700  0.12799504  0.50812115     0.01500
C1705       C  0.66646821  0.10964565  0.53130351    -0.14500
C1706       C  0.66263949  0.10837522  0.57573573    -0.12200
C1707       C  0.66344285  0.12516727  0.59790251     0.01100
C1708       C  0.66930013  0.14369579  0.57604530    -0.24400
H1709       H  0.66727733  0.10122506  0.37036310     0.09100
H1710       H  0.66574443  0.09751270  0.44772103     0.12600
H1711       H  0.68526737  0.16580327  0.38316223     0.11400
H1712       H  0.68750424  0.18097115  0.45209552     0.12600
H1713       H  0.68174073  0.17767989  0.52941509     0.11600
H1714       H  0.66520643  0.09603145  0.51592457     0.08700
H1715       H  0.65823263  0.09397156  0.59248287     0.11900
H1716       H  0.67018588  0.15678490  0.59355323     0.13800
C1717       C  0.46531732  0.19040349  0.52397753    -0.01700
C1718       C  0.48411110  0.20944449  0.52587120    -0.09700
C1719       C  0.48446756  0.22811422  0.53338177    -0.18600
C1720       C  0.46589963  0.22852933  0.53952190     0.03800
C1721       C  0.44682414  0.20922213  0.53809707     0.18000
C1722       C  0.44667351  0.19043751  0.53014850    -0.20000
C1723       C  0.42803068  0.20880920  0.54464105    -0.21200
C1724       C  0.42774249  0.22713890  0.55230766    -0.19800
C1725       C  0.44622737  0.24642383  0.55333069     0.19400
C1726       C  0.46558905  0.24738760  0.54694962     0.01500
C1727       C  0.48379654  0.26721920  0.54801364    -0.14500
C1728       C  0.48282121  0.28524217  0.55491849    -0.12200
C1729       C  0.46374953  0.28433704  0.56121918     0.01100
C1730       C  0.44546985  0.26477959  0.56053151    -0.24400
H1731       H  0.49879550  0.21001916  0.52127781     0.09100
H1732       H  0.49959749  0.24193820  0.53425118     0.12600
H1733       H  0.43203246  0.17583740  0.52900836     0.11400
H1734       H  0.41341806  0.19418360  0.54380822     0.12600
H1735       H  0.41291340  0.22622740  0.55721553     0.11600
H1736       H  0.49909523  0.26942394  0.54343786     0.08700
H1737       H  0.49724411  0.30004377  0.55544857     0.11900
H1738       H  0.43061495  0.26381396  0.56549407     0.13800
C1739       C  0.51646507  0.11986719  0.44039882    -0.01700
C1740       C  0.53128021  0.11664563  0.46128789    -0.09700
C1741       C  0.54679987  0.11577324  0.43793184    -0.18600
C1742       C  0.54793106  0.11802038  0.39262521     0.03800
C1743       C  0.53200596  0.11983891  0.37135877     0.18000
C1744       C  0.51663284  0.12095933  0.39531100    -0.20000
C1745       C  0.53173187  0.12091653  0.32635956    -0.21200
C1746       C  0.54711648  0.12048429  0.30194149    -0.19800
C1747       C  0.56352709  0.11970797  0.32202607     0.19400
C1748       C  0.56435852  0.11873308  0.36769597     0.01500
C1749       C  0.58198686  0.11933057  0.38640814    -0.14500
C1750       C  0.59814314  0.12100785  0.36074516    -0.12200
C1751       C  0.59700656  0.12161263  0.31579130     0.01100
C1752       C  0.57949452  0.12060520  0.29665036    -0.24400
H1753       H  0.53136608  0.11553440  0.49610240     0.09100
H1754       H  0.55771660  0.11340421  0.45626635     0.12600
H1755       H  0.50500970  0.12310102  0.37882985     0.11400
H1756       H  0.51954521  0.12212457  0.30992793     0.12600
H1757       H  0.54645227  0.12129305  0.26713017     0.11600
H1758       H  0.58409644  0.11927819  0.42077379     0.08700
H1759       H  0.61168523  0.12203803  0.37615120     0.11900
H1760       H  0.57874445  0.12155864  0.26185886     0.13800
C1761       C  0.53420436  0.16647543  0.58225707    -0.01700
C1762       C  0.55245202  0.17404968  0.55793834    -0.09700
C1763       C  0.57122826  0.17872320  0.57755018    -0.18600
C1764       C  0.57229183  0.17586458  0.62234624     0.03800
C1765       C  0.55424162  0.17030878  0.64737044     0.18000
C1766       C  0.53547480  0.16566185  0.62722644    -0.20000
C1767       C  0.55464844  0.16811779  0.69208833    -0.21200
C1768       C  0.57205995  0.16969945  0.71214186    -0.19800
C1769       C  0.58925805  0.17300606  0.68781894     0.19400
C1770       C  0.59001016  0.17686714  0.64278815     0.01500
C1771       C  0.60765686  0.17965003  0.61974399    -0.14500
C1772       C  0.62258018  0.17627278  0.63965085    -0.12200
C1773       C  0.62077517  0.17092907  0.68321814     0.01100
C1774       C  0.60480790  0.17054320  0.70762092    -0.24400
H1775       H  0.55197536  0.17506820  0.52315692     0.09100
H1776       H  0.58443039  0.18375820  0.55660326     0.12600
H1777       H  0.52151951  0.16016882  0.64640091     0.11400
H1778       H  0.54110062  0.16430341  0.71148058     0.12600
H1779       H  0.57160353  0.16713323  0.74660313     0.11600
H1780       H  0.60954419  0.18285994  0.58567611     0.08700
H1781       H  0.63463487  0.17624352  0.62020472     0.11900
H1782       H  0.60320470  0.16596025  0.74123238     0.13800
C1783       C  0.46248729  0.19048119  0.02728535    -0.01700
C1784       C  0.48122834  0.20941043  0.03136653    -0.09700
C1785       C  0.48146759  0.22809044  0.03777784    -0.18600
C1786       C  0.46281314  0.22862972  0.04057685     0.03800
C1787       C  0.44374530  0.20943608  0.03696533     0.18000
C1788       C  0.44372544  0.19062700  0.03018026    -0.20000
C1789       C  0.42486041  0.20918189  0.04020515    -0.21200
C1790       C  0.42451080  0.22754499  0.04726570    -0.19800
C1791       C  0.44303495  0.24671369  0.05089967     0.19400
C1792       C  0.46244813  0.24750879  0.04714717     0.01500
C1793       C  0.48071396  0.26720149  0.05012953    -0.14500
C1794       C  0.47980061  0.28520815  0.05734247    -0.12200
C1795       C  0.46073491  0.28449316  0.06198500     0.01100
C1796       C  0.44232198  0.26510904  0.05842518    -0.24400
H1797       H  0.49597127  0.20989789  0.02924840     0.09100
H1798       H  0.49659112  0.24181187  0.04057826     0.12600
H1799       H  0.42908887  0.17611294  0.02716652     0.11400
H1800       H  0.41023272  0.19464578  0.03750182     0.12600
H1801       H  0.40962658  0.22673941  0.04989658     0.11600
H1802       H  0.49604387  0.26932788  0.04700809     0.08700
H1803       H  0.49432224  0.29986178  0.05965031     0.11900
H1804       H  0.42745560  0.26430356  0.06164713     0.13800
C1805       C  0.51064762  0.11827036  0.93131508    -0.01700
C1806       C  0.52156452  0.10923735  0.94896820    -0.09700
C1807       C  0.53528501  0.10605402  0.92394792    -0.18600
C1808       C  0.53869655  0.11194245  0.88010499     0.03800
C1809       C  0.52674752  0.12004947  0.86166593     0.18000
C1810       C  0.51289216  0.12308294  0.88722423    -0.20000
C1811       C  0.52920294  0.12573427  0.81815606    -0.21200
C1812       C  0.54404754  0.12458930  0.79309251    -0.19800
C1813       C  0.55692998  0.11791577  0.81100057     0.19400
C1814       C  0.55409425  0.11090393  0.85440780     0.01500
C1815       C  0.56750697  0.10415649  0.87066673    -0.14500
C1816       C  0.58391790  0.10575481  0.84583573    -0.12200
C1817       C  0.58715549  0.11370763  0.80406391     0.01100
C1818       C  0.57331914  0.11919125  0.78635988    -0.24400
H1819       H  0.51996885  0.10510170  0.98277445     0.09100
H1820       H  0.54332189  0.09937504  0.94017395     0.12600
H1821       H  0.50433883  0.12982408  0.87299582     0.11400
H1822       H  0.51994296  0.13161638  0.80367276     0.12600
H1823       H  0.54585837  0.12951818  0.75976249     0.11600
H1824       H  0.56624479  0.09834636  0.90295666     0.08700
H1825       H  0.59467485  0.10166668  0.85998587     0.11900
H1826       H  0.57603449  0.12555042  0.75401129     0.13800
C1827       C  0.53155688  0.16221898  0.07917014    -0.01700
C1828       C  0.54933401  0.16890831  0.05371587    -0.09700
C1829       C  0.56780525  0.17172416  0.07163510    -0.18600
C1830       C  0.56908851  0.16797521  0.11589173     0.03800
C1831       C  0.55165323  0.16322586  0.14229649     0.18000
C1832       C  0.53309724  0.16021105  0.12376887    -0.20000
C1833       C  0.55250950  0.16054482  0.18674687    -0.21200
C1834       C  0.56997954  0.16156346  0.20531997    -0.19800
C1835       C  0.58669176  0.16449821  0.17967564     0.19400
C1836       C  0.58660222  0.16786365  0.13459064     0.01500
C1837       C  0.60333536  0.16946059  0.10986898    -0.14500
C1838       C  0.61865324  0.16637353  0.12872934    -0.12200
C1839       C  0.61833931  0.16264613  0.17296351     0.01100
C1840       C  0.60284111  0.16268382  0.19849708    -0.24400
H1841       H  0.54862288  0.17070029  0.01921006     0.09100
H1842       H  0.58066040  0.17634867  0.04987632     0.12600
H1843       H  0.51950502  0.15530114  0.14383831     0.11400
H1844       H  0.53940641  0.15721450  0.20718428     0.12600
H1845       H  0.57000474  0.15905945  0.23972615     0.11600
H1846       H  0.60432297  0.17181293  0.07548583     0.08700
H1847       H  0.63044238  0.16628363  0.10847901     0.11900
H1848       H  0.60231726  0.15943066  0.23269739     0.13800
C1849       C  0.44241639  0.12980376  0.88033093    -0.01700
C1850       C  0.43404165  0.10988882  0.86229153    -0.09700
C1851       C  0.43245023  0.10708443  0.81762199    -0.18600
C1852       C  0.43906010  0.12423033  0.78951205     0.03800
C1853       C  0.44579048  0.14413034  0.80815605     0.18000
C1854       C  0.44774415  0.14679971  0.85315970    -0.20000
C1855       C  0.45111844  0.16133046  0.78171949    -0.21200
C1856       C  0.45059883  0.15934341  0.73702919    -0.19800
C1857       C  0.44548404  0.14028957  0.71771927     0.19400
C1858       C  0.43971707  0.12245620  0.74371912     0.01500
C1859       C  0.43598430  0.10392148  0.72292634    -0.14500
C1860       C  0.43848991  0.10333042  0.67846931    -0.12200
C1861       C  0.44413107  0.12089516  0.65306669     0.01100
C1862       C  0.44705462  0.13918675  0.67267646    -0.24400
H1863       H  0.42966663  0.09651949  0.88274133     0.09100
H1864       H  0.42616872  0.09134709  0.80607212     0.12600
H1865       H  0.45389538  0.16221667  0.86705601     0.11400
H1866       H  0.45594575  0.17648266  0.79570895     0.12600
H1867       H  0.45501110  0.17300314  0.71747617     0.11600
H1868       H  0.43203407  0.08988638  0.74032100     0.08700
H1869       H  0.43627586  0.08908885  0.66386670     0.11900
H1870       H  0.45182309  0.15294399  0.65315841     0.13800
C1871       C  0.44190427  0.11822858  0.15224956    -0.01700
C1872       C  0.43788351  0.10088496  0.17708612    -0.09700
C1873       C  0.43615994  0.10121084  0.22193040    -0.18600
C1874       C  0.43910253  0.11928254  0.24358787     0.03800
C1875       C  0.44299808  0.13676473  0.21807164     0.18000
C1876       C  0.44376743  0.13586985  0.17285643    -0.20000
C1877       C  0.44715360  0.15541504  0.23788342    -0.21200
C1878       C  0.44862791  0.15747696  0.28250527    -0.19800
C1879       C  0.44524034  0.14070764  0.30850289     0.19400
C1880       C  0.43947317  0.12106766  0.28959222     0.01500
C1881       C  0.43486154  0.10429025  0.31762993    -0.14500
C1882       C  0.43730624  0.10731597  0.36229521    -0.12200
C1883       C  0.44466182  0.12712157  0.38028255     0.01100
C1884       C  0.44814859  0.14363650  0.35330234    -0.24400
H1885       H  0.43640909  0.08708451  0.16175905     0.09100
H1886       H  0.43346578  0.08743729  0.23887472     0.12600
H1887       H  0.44719580  0.14945017  0.15383747     0.11400
H1888       H  0.45010967  0.16878339  0.21866860     0.12600
H1889       H  0.45269418  0.17238895  0.29677159     0.11600
H1890       H  0.42950945  0.08871727  0.30596745     0.08700
H1891       H  0.43436149  0.09430401  0.38268533     0.11900
H1892       H  0.45349397  0.15892222  0.36721689     0.13800
C1893       C  0.27832040  0.81720077  0.98270364    -0.01700
C1894       C  0.27794466  0.79819068  0.98069331    -0.09700
C1895       C  0.25948377  0.77955425  0.97306535    -0.18600
C1896       C  0.24048830  0.77916065  0.96688600     0.03800
C1897       C  0.24085684  0.79845818  0.96833261     0.18000
C1898       C  0.25965244  0.81721560  0.97627050    -0.20000
C1899       C  0.22242554  0.79884980  0.96219423    -0.21200
C1900       C  0.20359614  0.78046970  0.95522656    -0.19800
C1901       C  0.20265928  0.76116922  0.95414545     0.19400
C1902       C  0.22116260  0.76030160  0.95967993     0.01500
C1903       C  0.21951957  0.74054697  0.95798176    -0.14500
C1904       C  0.20042439  0.72248145  0.95156927    -0.12200
C1905       C  0.18209041  0.72318425  0.94641404     0.01100
C1906       C  0.18335611  0.74270095  0.94761096    -0.24400
H1907       H  0.29202770  0.79760554  0.98564607     0.09100
H1908       H  0.26067611  0.76572008  0.97249165     0.12600
H1909       H  0.25971337  0.83181693  0.97757723     0.11400
H1910       H  0.22254436  0.81348067  0.96305219     0.12600
H1911       H  0.18963881  0.78135654  0.95084676     0.11600
H1912       H  0.23269409  0.73841497  0.96150648     0.08700
H1913       H  0.20011939  0.70776776  0.95054902     0.11900
H1914       H  0.16936506  0.74354808  0.94338909     0.13800
C1915       C  0.36902548  0.94835968  0.00955152    -0.01700
C1916       C  0.38916049  0.95914428  0.02676287    -0.09700
C1917       C  0.39986317  0.98070953  0.03061038    -0.18600
C1918       C  0.39086551  0.99250054  0.01694771     0.03800
C1919       C  0.36992944  0.98158172  0.00227641     0.18000
C1920       C  0.35919866  0.95963825  0.99853159    -0.20000
C1921       C  0.36008661  0.99271888  0.99074152    -0.21200
C1922       C  0.37072787  0.01445522  0.99281755    -0.19800
C1923       C  0.39167014  0.02565514  0.00529108     0.19400
C1924       C  0.40203545  0.01473086  0.01706134     0.01500
C1925       C  0.42339515  0.02649406  0.02712094    -0.14500
C1926       C  0.43397478  0.04809061  0.02596281    -0.12200
C1927       C  0.42380061  0.05898006  0.01529916     0.01100
C1928       C  0.40250493  0.04768519  0.00535905    -0.24400
H1929       H  0.39696990  0.95088149  0.03674057     0.09100
H1930       H  0.41520061  0.98762728  0.04439854     0.12600
H1931       H  0.34349635  0.95145355  0.98581946     0.11400
H1932       H  0.34406525  0.98456807  0.97990976     0.12600
H1933       H  0.36265324  0.02257026  0.98367044     0.11600
H1934       H  0.43260488  0.01953911  0.03508453     0.08700
H1935       H  0.45036993  0.05636258  0.03402295     0.11900
H1936       H  0.39454005  0.05598137  0.99673476     0.13800
C1937       C  0.39880516  0.88803117  0.07656052    -0.01700
C1938       C  0.39926341  0.89094086  0.12115864    -0.09700
C1939       C  0.41606326  0.89326462  0.14558124    -0.18600
C1940       C  0.43263817  0.89212595  0.12597167     0.03800
C1941       C  0.43190549  0.88906520  0.08061958     0.18000
C1942       C  0.41533348  0.88749880  0.05643158    -0.20000
C1943       C  0.44731721  0.88684032  0.05975936    -0.21200
C1944       C  0.46317415  0.88684895  0.08325331    -0.19800
C1945       C  0.46423394  0.88956004  0.12800253     0.19400
C1946       C  0.44940516  0.89296392  0.14983598     0.01500
C1947       C  0.45175816  0.89657750  0.19474820    -0.14500
C1948       C  0.46724898  0.89537291  0.21738290    -0.12200
C1949       C  0.48090377  0.89056215  0.19614175     0.01100
C1950       C  0.47969781  0.88827040  0.15125159    -0.24400
H1951       H  0.38654672  0.89132293  0.13718160     0.09100
H1952       H  0.41526260  0.89522997  0.17982176     0.12600
H1953       H  0.41481299  0.88484437  0.02190677     0.11400
H1954       H  0.44676277  0.88446410  0.02516199     0.12600
H1955       H  0.47453650  0.88446008  0.06637125     0.11600
H1956       H  0.44173830  0.90011693  0.21342212     0.08700
H1957       H  0.46800551  0.89747934  0.25205289     0.11900
H1958       H  0.49043748  0.88489811  0.13448979     0.13800
C1959       C  0.46468712  0.85097847  0.83883516    -0.01700
C1960       C  0.46207061  0.84875227  0.88355574    -0.09700
C1961       C  0.44348386  0.84503904  0.90266057    -0.18600
C1962       C  0.42728578  0.84443062  0.87754603     0.03800
C1963       C  0.43010927  0.84668812  0.83216267     0.18000
C1964       C  0.44831168  0.84914362  0.81327237    -0.20000
C1965       C  0.41538895  0.84787154  0.80610934    -0.21200
C1966       C  0.39855355  0.84822323  0.82444490    -0.19800
C1967       C  0.39551708  0.84643728  0.86909633     0.19400
C1968       C  0.40914460  0.84326753  0.89599827     0.01500
C1969       C  0.40441105  0.83988877  0.94038841    -0.14500
C1970       C  0.38820773  0.84183990  0.95792600    -0.12200
C1971       C  0.37633726  0.84737130  0.93195364     0.01100
C1972       C  0.37952760  0.84879222  0.88727411    -0.24400
H1973       H  0.47465197  0.85042737  0.90389407     0.09100
H1974       H  0.44274205  0.84398334  0.93734354     0.12600
H1975       H  0.45045101  0.85142449  0.77870972     0.11400
H1976       H  0.41747934  0.84961677  0.77148099     0.12600
H1977       H  0.38804846  0.85028577  0.80362131     0.11600
H1978       H  0.41325870  0.83617398  0.96243315     0.08700
H1979       H  0.38592384  0.84040868  0.99251836     0.11900
H1980       H  0.37017289  0.85269039  0.86684222     0.13800
C1981       C  0.27833338  0.81733059  0.48819190    -0.01700
C1982       C  0.26019046  0.81850501  0.48422108    -0.09700
C1983       C  0.24078092  0.80051214  0.47772803    -0.18600
C1984       C  0.23882619  0.78057999  0.47534292     0.03800
C1985       C  0.25729544  0.77953283  0.47952408     0.18000
C1986       C  0.27666502  0.79771800  0.48549821    -0.20000
C1987       C  0.25639310  0.76029785  0.47803340    -0.21200
C1988       C  0.23754952  0.74198852  0.47246222    -0.19800
C1989       C  0.21909916  0.74241157  0.46782008     0.19400
C1990       C  0.21934777  0.76164825  0.46906545     0.01500
C1991       C  0.20011657  0.76096154  0.46368826    -0.14500
C1992       C  0.18157937  0.74200602  0.45679287    -0.12200
C1993       C  0.18153732  0.72312586  0.45536352     0.01100
C1994       C  0.20042324  0.72357834  0.46141777    -0.24400
H1995       H  0.26097438  0.83343116  0.48613346     0.09100
H1996       H  0.22757143  0.80266820  0.47499871     0.12600
H1997       H  0.29050466  0.79650835  0.48871297     0.11400
H1998       H  0.27039175  0.75938841  0.48131752     0.12600
H1999       H  0.23743424  0.72735729  0.47149666     0.11600
H2000       H  0.19895528  0.77483318  0.46419251     0.08700
H2001       H  0.16725232  0.74216552  0.45228759     0.11900
H2002       H  0.20073224  0.70915956  0.46039194     0.13800
C2003       C  0.37309558  0.94803590  0.50039984    -0.01700
C2004       C  0.39463265  0.95907281  0.50729114    -0.09700
C2005       C  0.40566009  0.98067862  0.51057089    -0.18600
C2006       C  0.39556626  0.99237391  0.50708002     0.03800
C2007       C  0.37363105  0.98132243  0.50152564     0.18000
C2008       C  0.36258997  0.95930874  0.49792251    -0.20000
C2009       C  0.36298177  0.99238300  0.49962055    -0.21200
C2010       C  0.37364764  0.01410436  0.50331814    -0.19800
C2011       C  0.39532802  0.02543808  0.50809031     0.19400
C2012       C  0.40654994  0.01463700  0.50931044     0.01500
C2013       C  0.42840669  0.02657036  0.51222627    -0.14500
C2014       C  0.43865495  0.04816172  0.51495684    -0.12200
C2015       C  0.42776550  0.05899693  0.51503248     0.01100
C2016       C  0.40595258  0.04747602  0.51145639    -0.24400
H2017       H  0.40326060  0.95097538  0.50990540     0.09100
H2018       H  0.42207720  0.98765149  0.51622480     0.12600
H2019       H  0.34591910  0.95102339  0.49296404     0.11400
H2020       H  0.34625868  0.98416919  0.49554634     0.12600
H2021       H  0.36488419  0.02210144  0.50208200     0.11600
H2022       H  0.43819307  0.01980208  0.51200693     0.08700
H2023       H  0.45544750  0.05641344  0.51740188     0.11900
H2024       H  0.39729668  0.05559442  0.51101653     0.13800
C2025       C  0.48340076  0.89214823  0.69593574    -0.01700
C2026       C  0.48515574  0.89326594  0.65100233    -0.09700
C2027       C  0.47020135  0.89428786  0.62572242    -0.18600
C2028       C  0.45262758  0.89363950  0.64474950     0.03800
C2029       C  0.45088484  0.89234499  0.69041836     0.18000
C2030       C  0.46647139  0.89217739  0.71549875    -0.20000
C2031       C  0.43317484  0.89030177  0.71068042    -0.21200
C2032       C  0.41673151  0.88868227  0.68640014    -0.19800
C2033       C  0.41792202  0.88980802  0.64136685     0.19400
C2034       C  0.43624279  0.89317157  0.62002303     0.01500
C2035       C  0.43720713  0.89555902  0.57476839    -0.14500
C2036       C  0.42014167  0.89314944  0.55144838    -0.12200
C2037       C  0.40155287  0.88825618  0.57228779     0.01100
C2038       C  0.40072497  0.88713920  0.61741255    -0.24400
H2039       H  0.49800086  0.89300931  0.63527413     0.09100
H2040       H  0.47239063  0.89466834  0.59133045     0.12600
H2041       H  0.46477142  0.89080433  0.75026484     0.11400
H2042       H  0.43173385  0.88924774  0.74548724     0.12600
H2043       H  0.40293144  0.88638680  0.70294576     0.11600
H2044       H  0.45089220  0.89919505  0.55642021     0.08700
H2045       H  0.42133206  0.89444349  0.51665276     0.11900
H2046       H  0.38655779  0.88382580  0.63388995     0.13800
C2047       C  0.32285259  0.87765568  0.63341662    -0.01700
C2048       C  0.30994624  0.86039721  0.65886818    -0.09700
C2049       C  0.30970429  0.86220612  0.70359083    -0.18600
C2050       C  0.32288626  0.88137177  0.72453694     0.03800
C2051       C  0.33625707  0.89878633  0.69856624     0.18000
C2052       C  0.33572543  0.89692178  0.65335839    -0.20000
C2053       C  0.35061925  0.91770262  0.71795594    -0.21200
C2054       C  0.35243918  0.91951181  0.76263811    -0.19800
C2055       C  0.33941044  0.90268253  0.78902640     0.19400
C2056       C  0.32390331  0.88362315  0.77035662     0.01500
C2057       C  0.31020570  0.86758181  0.79840392    -0.14500
C2058       C  0.31262879  0.86992680  0.84303693    -0.12200
C2059       C  0.32885320  0.88815627  0.86114417     0.01100
C2060       C  0.34199261  0.90464190  0.83402212    -0.24400
H2061       H  0.30013924  0.84529360  0.64406452     0.09100
H2062       H  0.29963836  0.84811890  0.72093419     0.12600
H2063       H  0.34619029  0.91017607  0.63380251     0.11400
H2064       H  0.36094100  0.93101114  0.69841843     0.12600
H2065       H  0.36413668  0.93417092  0.77665312     0.11600
H2066       H  0.29745737  0.85303767  0.78685887     0.08700
H2067       H  0.30223762  0.85704567  0.86345010     0.11900
H2068       H  0.35439648  0.91893363  0.84797170     0.13800
C2069       C  0.32694836  0.88552182  0.36072661    -0.01700
C2070       C  0.31075125  0.86708230  0.34318864    -0.09700
C2071       C  0.30739526  0.86492360  0.29864273    -0.18600
C2072       C  0.32008199  0.88138022  0.27030283     0.03800
C2073       C  0.33541580  0.90059487  0.28877683     0.18000
C2074       C  0.33893506  0.90236462  0.33347708    -0.20000
C2075       C  0.34750203  0.91778167  0.26245039    -0.21200
C2076       C  0.34512985  0.91615612  0.21789948    -0.19800
C2077       C  0.33112663  0.89711484  0.19850706     0.19400
C2078       C  0.31844559  0.87938937  0.22438661     0.01500
C2079       C  0.30550351  0.86022471  0.20313547    -0.14500
C2080       C  0.30572794  0.85864186  0.15825980    -0.12200
C2081       C  0.31826468  0.87615144  0.13305090     0.01100
C2082       C  0.33047979  0.89546357  0.15329856    -0.24400
H2083       H  0.30122349  0.85393628  0.36383784     0.09100
H2084       H  0.29485749  0.85018101  0.28734144     0.12600
H2085       H  0.35126816  0.91679967  0.34710242     0.11400
H2086       H  0.35901402  0.93254866  0.27639683     0.12600
H2087       H  0.35486413  0.92970874  0.19839367     0.11600
H2088       H  0.29576837  0.84599411  0.22035842     0.08700
H2089       H  0.29632438  0.84353142  0.14317612     0.11900
H2090       H  0.34057625  0.90896045  0.13393309     0.13800
C2091       C  0.37563374  0.84365621  0.43192110    -0.01700
C2092       C  0.37542506  0.84032565  0.38747365    -0.09700
C2093       C  0.39052900  0.83695238  0.36849540    -0.18600
C2094       C  0.40695766  0.83790859  0.39338348     0.03800
C2095       C  0.40673218  0.84084261  0.43863540     0.18000
C2096       C  0.39076180  0.84289918  0.45749273    -0.20000
C2097       C  0.42326771  0.84333227  0.46444353    -0.21200
C2098       C  0.44083573  0.84461866  0.44584678    -0.19800
C2099       C  0.44193181  0.84264797  0.40119868     0.19400
C2100       C  0.42449190  0.83792227  0.37468225     0.01500
C2101       C  0.42587087  0.83454684  0.33027102    -0.14500
C2102       C  0.44459113  0.83826057  0.31223881    -0.12200
C2103       C  0.46248863  0.84548379  0.33778728     0.01100
C2104       C  0.46076838  0.84659596  0.38257395    -0.24400
H2105       H  0.36396215  0.84103253  0.36718363     0.09100
H2106       H  0.38974573  0.83505708  0.33394777     0.12600
H2107       H  0.39129051  0.84596568  0.49184424     0.11400
H2108       H  0.42314454  0.84553345  0.49899344     0.12600
H2109       H  0.45389269  0.84779713  0.46638536     0.11600
H2110       H  0.41291840  0.82964617  0.30851684     0.08700
H2111       H  0.44536360  0.83685147  0.27760050     0.11900
H2112       H  0.47440712  0.85167876  0.40271257     0.13800
loop_ 
_geom_bond_atom_site_label_1 
_geom_bond_atom_site_label_2 
_geom_bond_distance 
_geom_bond_site_symmetry_2 
_ccdc_geom_bond_type 
O1          Cr19   1.981       .  S
O1            C9   1.261       .  A
O2          Cr19   2.026       .  S
O2            C3   1.272       .  A
C3            O4   1.264       .  A
C3         C1981   1.490       .  S
O4          Cr20   1.978       .  S
O5          Cr20   2.008       .  S
O5            C6   1.264       .  A
C6            O7   1.260       .  A
C6         C2091   1.477       .  S
O7          Cr21   1.984       .  S
O8          Cr21   2.006       .  S
O8            C9   1.266       .  A
C9         C2069   1.474       .  S
O10         Cr19   2.033       .  S
O10          C18   1.269       .  A
O11         Cr19   1.991       .  S
O11          C12   1.262       .  A
C12          O13   1.263       .  A
C12        C2047   1.474       .  S
O13         Cr20   2.001       .  S
O14         Cr20   1.982       .  S
O14          C15   1.263       .  A
C15          O16   1.268       .  A
C15        C2037   1.478       .  S
O16         Cr21   2.007       .  S
O17         Cr21   1.965       .  S
O17          C18   1.258       .  A
C18        C2003   1.492       .  S
Cr19         O22   1.770       .  S
Cr20         O22   1.769       .  S
Cr21         O22   1.763       .  S
O23         Cr41   1.979       .  S
O23          C31   1.262       .  A
O24         Cr41   2.026   1_554  S
O24          C25   1.271   1_554  A
C25          O26   1.263       .  A
C25        C1893   1.488       .  S
O26         Cr42   1.973   1_556  S
O27         Cr42   2.017   1_556  S
O27          C28   1.267       .  A
C28          O29   1.261       .  A
C28        C1971   1.482       .  S
O29         Cr43   1.980       .  S
O30         Cr43   2.005       .  S
O30          C31   1.265       .  A
C31        C2059   1.474       .  S
O32         Cr41   2.029       .  S
O32          C40   1.269   1_556  A
O33         Cr41   1.988   1_554  S
O33          C34   1.262       .  A
C34          O35   1.264       .  A
C34        C2081   1.476       .  S
O35         Cr42   2.007       .  S
O36         Cr42   1.981       .  S
O36          C37   1.261       .  A
C37          O38   1.265       .  A
C37        C1937   1.469       .  S
O38         Cr43   1.999   1_554  S
O39         Cr43   1.963   1_554  S
O39          C40   1.258       .  A
C40        C1915   1.485       .  S
Cr41         O44   1.770       .  S
Cr42         O44   1.766   1_554  S
Cr43         O44   1.762       .  S
O45         Cr63   1.986       .  S
O45          C53   1.263       .  A
O46         Cr63   2.029       .  S
O46          C47   1.272       .  A
C47          O48   1.263       .  A
C47        C1783   1.490       .  S
O48         Cr64   1.973   1_554  S
O49         Cr64   2.023   1_554  S
O49          C50   1.268       .  A
C50          O51   1.258       .  A
C50        C1827   1.482       .  S
O51         Cr65   1.973       .  S
O52         Cr65   2.009       .  S
O52          C53   1.266       .  A
C53        C1871   1.478       .  S
O54         Cr63   2.034       .  S
O54          C62   1.269       .  A
O55         Cr63   1.984   1_556  S
O55          C56   1.262       .  A
C56          O57   1.265       .  A
C56        C1849   1.476       .  S
O57         Cr64   2.010       .  S
O58         Cr64   1.983       .  S
O58          C59   1.262       .  A
C59          O60   1.268       .  A
C59        C1805   1.485       .  S
O60         Cr65   2.012   1_556  S
O61         Cr65   1.956       .  S
O61          C62   1.256       .  A
C62        C1927   1.481       .  S
Cr63         O66   1.772       .  S
Cr64         O66   1.768   1_556  S
Cr65         O66   1.760       .  S
O67         Cr85   1.985       .  S
O67          C75   1.260       .  A
O68         Cr85   2.036       .  S
O68          C69   1.274       .  A
C69          O70   1.261       .  A
C69        C1717   1.489       .  S
O70         Cr86   1.963       .  S
O71         Cr86   2.020       .  S
O71          C72   1.268       .  A
C72          O73   1.260       .  A
C72        C1761   1.483       .  S
O73         Cr87   1.978       .  S
O74         Cr87   2.006       .  S
O74          C75   1.265       .  A
C75        C1861   1.475       .  S
O76         Cr85   2.042       .  S
O76          C84   1.272       .  A
O77         Cr85   1.987       .  S
O77          C78   1.260       .  A
C78          O79   1.265       .  A
C78        C1883   1.478       .  S
O79         Cr86   2.010       .  S
O80         Cr86   1.975       .  S
O80          C81   1.261       .  A
C81          O82   1.267       .  A
C81        C1739   1.476       .  S
O82         Cr87   2.010       .  S
O83         Cr87   1.959       .  S
O83          C84   1.259       .  A
C84        C2015   1.492       .  S
Cr85         O88   1.771       .  S
Cr86         O88   1.766       .  S
Cr87         O88   1.761       .  S
O89        Cr107   1.982       .  S
O89          C97   1.261       .  A
O90        Cr107   2.026       .  S
O90          C91   1.272       .  A
C91          O92   1.263       .  A
C91        C1629   1.482       .  S
O92        Cr108   1.966       .  S
O93        Cr108   2.011       .  S
O93          C94   1.263       .  A
C94          O95   1.259       .  A
C94        C1839   1.478       .  S
O95        Cr109   1.986       .  S
O96        Cr109   2.000       .  S
O96          C97   1.267       .  A
C97        C1673   1.478       .  S
O98        Cr107   2.026       .  S
O98         C106   1.268       .  A
O99        Cr107   1.996       .  S
O99         C100   1.262       .  A
C100        O101   1.263       .  A
C100       C1695   1.482       .  S
O101       Cr108   1.995       .  S
O102       Cr108   1.974       .  S
O102        C103   1.262       .  A
C103        O104   1.269       .  A
C103       C1751   1.473       .  S
O104       Cr109   2.013       .  S
O105       Cr109   1.966       .  S
O105        C106   1.259       .  A
C106       C1663   1.488       .  S
Cr107       O110   1.775       .  S
Cr108       O110   1.765       .  S
Cr109       O110   1.760       .  S
O111       Cr129   2.023       .  S
O111        C119   1.268       .  A
O112       Cr129   1.979       .  S
O112        C113   1.261       .  A
C113        O114   1.267       .  A
C113       C1585   1.485       .  S
O114       Cr130   2.009       .  S
O115       Cr130   1.993       .  S
O115        C116   1.261       .  A
C116        O117   1.261       .  A
C116       C1773   1.467       .  S
O117       Cr131   1.993       .  S
O118       Cr131   1.966       .  S
O118        C119   1.259       .  A
C119       C1707   1.467       .  S
O120       Cr129   1.993       .  S
O120        C128   1.261       .  A
O121       Cr129   2.015       .  S
O121        C122   1.264       .  A
C122        O123   1.257       .  A
C122       C1685   1.464       .  S
O123       Cr130   1.964       .  S
O124       Cr130   2.008       .  S
O124        C125   1.267       .  A
C125        O126   1.263       .  A
C125       C1817   1.467       .  S
O126       Cr131   1.986       .  S
O127       Cr131   2.003       .  S
O127        C128   1.264       .  A
C128       C1619   1.490       .  S
Cr129       O132   1.782       .  S
Cr130       O132   1.772       .  S
Cr131       O132   1.767       .  S
O133       Cr151   1.986       .  S
O133        C141   1.261       .  A
O134       Cr151   2.033       .  S
O134        C135   1.272       .  A
C135        O136   1.260       .  A
C135       C1531   1.487       .  S
O136       Cr152   1.963       .  S
O137       Cr152   2.012       .  S
O137        C138   1.267       .  A
C138        O139   1.262       .  A
C138       C2103   1.481       .  S
O139       Cr153   1.982       .  S
O140       Cr153   2.005       .  S
O140        C141   1.264       .  A
C141       C1553   1.473       .  S
O142       Cr151   2.035       .  S
O142        C150   1.272       .  A
O143       Cr151   1.983       .  S
O143        C144   1.260       .  A
C144        O145   1.264       .  A
C144       C1575   1.472       .  S
O145       Cr152   2.010       .  S
O146       Cr152   1.979       .  S
O146        C147   1.262       .  A
C147        O148   1.265       .  A
C147       C1949   1.475       .  S
O148       Cr153   2.000       .  S
O149       Cr153   1.962       .  S
O149        C150   1.259       .  A
C150       C1651   1.489       .  S
Cr151       O154   1.769       .  S
Cr152       O154   1.765       .  S
Cr153       O154   1.763       .  S
O155       Cr173   1.978       .  S
O155        C163   1.262       .  A
O156       Cr173   2.038       .  S
O156        C157   1.274       .  A
C157        O158   1.262       .  A
C157       C1509   1.493       .  S
O158       Cr174   1.970       .  S
O159       Cr174   2.015       .  S
O159        C160   1.267       .  A
C160        O161   1.261       .  A
C160       C1959   1.478       .  S
O161       Cr175   1.982       .  S
O162       Cr175   2.013       .  S
O162        C163   1.268       .  A
C163       C1563   1.479       .  S
O164       Cr173   2.036       .  S
O164        C172   1.270       .  A
O165       Cr173   1.989       .  S
O165        C166   1.262       .  A
C166        O167   1.265       .  A
C166       C1541   1.479       .  S
O167       Cr174   2.006       .  S
O168       Cr174   1.975       .  S
O168        C169   1.260       .  A
C169        O170   1.267       .  A
C169       C2025   1.474       .  S
O170       Cr175   2.013       .  S
O171       Cr175   1.969       .  S
O171        C172   1.258       .  A
C172       C1607   1.483       .  S
Cr173       O176   1.770       .  S
Cr174       O176   1.764       .  S
Cr175       O176   1.764       .  S
O177       Cr195   1.979       .  S
O177        C185   1.262       .  A
O178       Cr195   2.027       .  S
O178        C179   1.271       .  A
C179        O180   1.261       .  A
C179       C1365   1.490       .  S
O180       Cr196   1.975       .  S
O181       Cr196   1.998       .  S
O181        C182   1.264       .  A
C182        O183   1.261       .  A
C182       C1409   1.475       .  S
O183       Cr197   1.985       .  S
O184       Cr197   2.011       .  S
O184        C185   1.266       .  A
C185       C1431   1.475       .  S
O186       Cr195   2.027       .  S
O186        C194   1.269       .  A
O187       Cr195   1.986       .  S
O187        C188   1.262       .  A
C188        O189   1.264       .  A
C188       C1465   1.479       .  S
O189       Cr196   2.004       .  S
O190       Cr196   1.980       .  S
O190        C191   1.263       .  A
C191        O192   1.267       .  A
C191       C1475   1.478       .  S
O192       Cr197   2.008       .  S
O193       Cr197   1.970       .  S
O193        C194   1.260       .  A
C194       C1387   1.490       .  S
Cr195       O198   1.769       .  S
Cr196       O198   1.768       .  S
Cr197       O198   1.767       .  S
O199       Cr217   1.985       .  S
O199        C207   1.261       .  A
O200       Cr217   2.028       .  S
O200        C201   1.273       .  A
C201        O202   1.263       .  A
C201       C1277   1.489       .  S
O202       Cr218   1.974       .  S
O203       Cr218   2.015       .  S
O203        C204   1.266       .  A
C204        O205   1.259       .  A
C204       C1321   1.477       .  S
O205       Cr219   1.978       .  S
O206       Cr219   2.004       .  S
O206        C207   1.264       .  A
C207       C1453   1.470       .  S
O208       Cr217   2.030       .  S
O208        C216   1.271       .  A
O209       Cr217   1.990       .  S
O209        C210   1.261       .  A
C210        O211   1.265       .  A
C210       C1443   1.477       .  S
O211       Cr218   2.004       .  S
O212       Cr218   1.976       .  S
O212        C213   1.261       .  A
C213        O214   1.268       .  A
C213       C1343   1.473       .  S
O214       Cr219   2.008       .  S
O215       Cr219   1.965       .  S
O215        C216   1.258       .  A
C216       C1299   1.487       .  S
Cr217       O220   1.766       .  S
Cr218       O220   1.767       .  S
Cr219       O220   1.764       .  S
O221       Cr239   1.977       .  S
O221        C229   1.260   1_554  A
O222       Cr239   2.038       .  S
O222        C223   1.274       .  A
C223        O224   1.261       .  A
C223       C1795   1.489       .  S
O224       Cr240   1.962       .  S
O225       Cr240   2.015       .  S
O225        C226   1.267       .  A
C226        O227   1.260       .  A
C226       C1333   1.478       .  S
O227       Cr241   1.979       .  S
O228       Cr241   2.012   1_556  S
O228        C229   1.266       .  A
C229       C1233   1.474       .  S
O230       Cr239   2.040       .  S
O230        C238   1.272       .  A
O231       Cr239   1.987       .  S
O231        C232   1.261       .  A
C232        O233   1.265       .  A
C232       C1255   1.478       .  S
O233       Cr240   2.009       .  S
O234       Cr240   1.975       .  S
O234        C235   1.261       .  A
C235        O236   1.268       .  A
C235       C1487   1.473       .  S
O236       Cr241   2.014       .  S
O237       Cr241   1.957       .  S
O237        C238   1.258       .  A
C238       C1211   1.490       .  S
Cr239       O242   1.770       .  S
Cr240       O242   1.764       .  S
Cr241       O242   1.763       .  S
O243       Cr261   1.984       .  S
O243        C251   1.262       .  A
O244       Cr261   2.035       .  S
O244        C245   1.274       .  A
C245        O246   1.261       .  A
C245       C1729   1.488       .  S
O246       Cr262   1.964       .  S
O247       Cr262   2.003       .  S
O247        C248   1.265       .  A
C248        O249   1.261       .  A
C248       C1421   1.473       .  S
O249       Cr263   1.981       .  S
O250       Cr263   2.009       .  S
O250        C251   1.266       .  A
C251       C1267   1.477       .  S
O252       Cr261   2.032       .  S
O252        C260   1.270       .  A
O253       Cr261   1.989       .  S
O253        C254   1.261       .  A
C254        O255   1.263       .  A
C254       C1245   1.476       .  S
O255       Cr262   2.002       .  S
O256       Cr262   1.973       .  S
O256        C257   1.261       .  A
C257        O258   1.267       .  A
C257       C1355   1.473       .  S
O258       Cr263   2.012       .  S
O259       Cr263   1.960       .  S
O259        C260   1.258       .  A
C260       C1189   1.486       .  S
Cr261       O264   1.769       .  S
Cr262       O264   1.763       .  S
Cr263       O264   1.764       .  S
O265       Cr283   1.980       .  S
O265        C273   1.261       .  A
O266       Cr283   2.026       .  S
O266        C267   1.272       .  A
C267        O268   1.263       .  A
C267       C1519   1.487       .  S
O268       Cr284   1.973       .  S
O269       Cr284   2.014       .  S
O269        C270   1.266       .  A
C270        O271   1.259       .  A
C270       C1167   1.481       .  S
O271       Cr285   1.980       .  S
O272       Cr285   2.014       .  S
O272        C273   1.267       .  A
C273       C1123   1.477       .  S
O274       Cr283   2.029       .  S
O274        C282   1.269       .  A
O275       Cr283   1.986       .  S
O275        C276   1.260       .  A
C276        O277   1.263       .  A
C276       C1113   1.470       .  S
O277       Cr284   2.008       .  S
O278       Cr284   1.985       .  S
O278        C279   1.264       .  A
C279        O280   1.270       .  A
C279       C1157   1.487       .  S
O280       Cr285   2.017       .  S
O281       Cr285   1.959       .  S
O281        C282   1.257       .  A
C282       C1399   1.487       .  S
Cr283       O286   1.772       .  S
Cr284       O286   1.769       .  S
Cr285       O286   1.761       .  S
O287       Cr305   1.983       .  S
O287        C295   1.262       .  A
O288       Cr305   2.038       .  S
O288        C289   1.274       .  A
C289        O290   1.261       .  A
C289       C1497   1.492       .  S
O290       Cr306   1.968       .  S
O291       Cr306   2.007       .  S
O291        C292   1.265       .  A
C292        O293   1.259       .  A
C292       C1079   1.473       .  S
O293       Cr307   1.973       .  S
O294       Cr307   2.010       .  S
O294        C295   1.266       .  A
C295       C1101   1.484       .  S
O296       Cr305   2.035       .  S
O296        C304   1.272       .  A
O297       Cr305   1.988       .  S
O297        C298   1.261       .  A
C298        O299   1.263       .  A
C298       C1135   1.477       .  S
O299       Cr306   2.003       .  S
O300       Cr306   1.978       .  S
O300        C301   1.262       .  A
C301        O302   1.268       .  A
C301       C1057   1.481       .  S
O302       Cr307   2.016       .  S
O303       Cr307   1.963       .  S
O303        C304   1.258       .  A
C304       C1311   1.490       .  S
Cr305       O308   1.769       .  S
Cr306       O308   1.767       .  S
Cr307       O308   1.764       .  S
O309       Cr327   1.989       .  S
O309        C317   1.262       .  A
O310       Cr327   2.039       .  S
O310        C311   1.273       .  A
C311        O312   1.261       .  A
C311       C1003   1.488       .  S
O312       Cr328   1.964       .  S
O313       Cr328   2.016       .  S
O313        C314   1.267       .  A
C314        O315   1.260       .  A
C314       C1179   1.478       .  S
O315       Cr329   1.979       .  S
O316       Cr329   2.003       .  S
O316        C317   1.265       .  A
C317       C1035   1.476       .  S
O318       Cr327   2.038       .  S
O318        C326   1.272       .  A
O319       Cr327   1.982       .  S
O319        C320   1.259       .  A
C320        O321   1.264       .  A
C320       C1013   1.469   1_554  S
O321       Cr328   2.009       .  S
O322       Cr328   1.984       .  S
O322        C323   1.262       .  A
C323        O324   1.267       .  A
C323       C1069   1.476       .  S
O324       Cr329   2.010       .  S
O325       Cr329   1.958       .  S
O325        C326   1.259       .  A
C326       C1223   1.486       .  S
Cr327       O330   1.772       .  S
Cr328       O330   1.766       .  S
Cr329       O330   1.760       .  S
O331       Cr349   1.985       .  S
O331        C339   1.262       .  A
O332       Cr349   2.031       .  S
O332        C333   1.272       .  A
C333        O334   1.264       .  A
C333        C969   1.495       .  S
O334       Cr350   1.979       .  S
O335       Cr350   1.998       .  S
O335        C336   1.263       .  A
C336        O337   1.259       .  A
C336       C1091   1.468       .  S
O337       Cr351   1.980       .  S
O338       Cr351   2.001       .  S
O338        C339   1.264       .  A
C339       C1025   1.479       .  S
O340       Cr349   2.024       .  S
O340        C348   1.269       .  A
O341       Cr349   1.990       .  S
O341        C342   1.261       .  A
C342        O343   1.262       .  A
C342       C1047   1.474       .  S
O343       Cr350   2.000       .  S
O344       Cr350   1.993       .  S
O344        C345   1.266       .  A
C345        O346   1.268       .  A
C345       C1145   1.485       .  S
O346       Cr351   2.016       .  S
O347       Cr351   1.967       .  S
O347        C348   1.260       .  A
C348       C1201   1.483       .  S
Cr349       O352   1.772       .  S
Cr350       O352   1.769       .  S
Cr351       O352   1.768       .  S
O353       Cr371   1.978       .  S
O353        C361   1.260       .  A
O354       Cr371   2.030       .  S
O354        C355   1.273       .  A
C355        O356   1.262       .  A
C355        C991   1.486       .  S
O356       Cr372   1.966       .  S
O357       Cr372   2.015       .  S
O357        C358   1.266       .  A
C358        O359   1.259       .  A
C358        C893   1.474       .  S
O359       Cr373   1.976       .  S
O360       Cr373   2.005       .  S
O360        C361   1.264       .  A
C361        C937   1.471       .  S
O362       Cr371   2.023       .  S
O362        C370   1.269       .  A
O363       Cr371   1.990       .  S
O363        C364   1.260       .  A
C364        O365   1.263       .  A
C364        C947   1.475       .  S
O365       Cr372   2.007       .  S
O366       Cr372   1.978       .  S
O366        C367   1.261       .  A
C367        O368   1.267       .  A
C367        C903   1.468       .  S
O368       Cr373   2.009       .  S
O369       Cr373   1.957       .  S
O369        C370   1.258       .  A
C370        C871   1.479       .  S
Cr371       O374   1.766       .  S
Cr372       O374   1.766       .  S
Cr373       O374   1.762       .  S
O375       Cr393   1.988       .  S
O375        C383   1.263       .  A
O376       Cr393   2.050       .  S
O376        C377   1.276       .  A
C377        O378   1.262       .  A
C377        C981   1.498       .  S
O378       Cr394   1.966       .  S
O379       Cr394   2.005       .  S
O379        C380   1.265       .  A
C380        O381   1.260       .  A
C380        C815   1.472       .  S
O381       Cr395   1.980       .  S
O382       Cr395   2.009       .  S
O382        C383   1.266       .  A
C383        C959   1.482       .  S
O384       Cr393   2.042       .  S
O384        C392   1.273       .  A
O385       Cr393   1.986       .  S
O385        C386   1.259       .  A
C386        O387   1.262       .  A
C386        C925   1.473       .  S
O387       Cr394   1.999       .  S
O388       Cr394   1.988       .  S
O388        C389   1.264       .  A
C389        O390   1.268       .  A
C389        C837   1.483       .  S
O390       Cr395   2.018       .  S
O391       Cr395   1.958       .  S
O391        C392   1.258       .  A
C392        C805   1.490       .  S
Cr393       O396   1.773       .  S
Cr394       O396   1.766       .  S
Cr395       O396   1.763       .  S
O397       Cr415   1.977       .  S
O397        C405   1.261       .  A
O398       Cr415   2.038       .  S
O398        C399   1.274       .  A
C399        O400   1.261       .  A
C399       C1993   1.491       .  S
O400       Cr416   1.966       .  S
O401       Cr416   2.004       .  S
O401        C402   1.264       .  A
C402        O403   1.260       .  A
C402        C827   1.479       .  S
O403       Cr417   1.984       .  S
O404       Cr417   2.011       .  S
O404        C405   1.267       .  A
C405        C749   1.476       .  S
O406       Cr415   2.033       .  S
O406        C414   1.270       .  A
O407       Cr415   1.991       .  S
O407        C408   1.261       .  A
C408        O409   1.263       .  A
C408        C783   1.478       .  S
O409       Cr416   2.006       .  S
O410       Cr416   1.971       .  S
O410        C411   1.262       .  A
C411        O412   1.268       .  A
C411        C915   1.477       .  S
O412       Cr417   2.011       .  S
O413       Cr417   1.966       .  S
O413        C414   1.258       .  A
C414        C727   1.493       .  S
Cr415       O418   1.770       .  S
Cr416       O418   1.766       .  S
Cr417       O418   1.766       .  S
O419       Cr437   1.988   1_554  S
O419        C427   1.262       .  A
O420       Cr437   2.037       .  S
O420        C421   1.272       .  A
C421        O422   1.260       .  A
C421       C1905   1.491       .  S
O422       Cr438   1.965       .  S
O423       Cr438   2.006       .  S
O423        C424   1.265       .  A
C424        O425   1.259       .  A
C424        C881   1.473       .  S
O425       Cr439   1.978       .  S
O426       Cr439   2.011   1_554  S
O426        C427   1.265       .  A
C427        C771   1.482       .  S
O428       Cr437   2.032       .  S
O428        C436   1.272       .  A
O429       Cr437   1.984       .  S
O429        C430   1.260       .  A
C430        O431   1.264       .  A
C430        C761   1.470       .  S
O431       Cr438   2.004       .  S
O432       Cr438   1.986       .  S
O432        C433   1.264       .  A
C433        O434   1.269       .  A
C433        C849   1.489       .  S
O434       Cr439   2.017       .  S
O435       Cr439   1.968       .  S
O435        C436   1.260       .  A
C436        C705   1.488       .  S
Cr437       O440   1.771       .  S
Cr438       O440   1.769       .  S
Cr439       O440   1.765       .  S
O441       Cr459   1.982       .  S
O441        C449   1.262       .  A
O442       Cr459   2.039       .  S
O442        C443   1.275       .  A
C443        O444   1.262       .  A
C443       C1377   1.490       .  S
O444       Cr460   1.966       .  S
O445       Cr460   2.013       .  S
O445        C446   1.265       .  A
C446        O447   1.260       .  A
C446        C683   1.477       .  S
O447       Cr461   1.981       .  S
O448       Cr461   2.004       .  S
O448        C449   1.265       .  A
C449        C639   1.478       .  S
O450       Cr459   2.041       .  S
O450        C458   1.272       .  A
O451       Cr459   1.989       .  S
O451        C452   1.261       .  A
C452        O453   1.263       .  A
C452        C617   1.478       .  S
O453       Cr460   2.006       .  S
O454       Cr460   1.975       .  S
O454        C455   1.261       .  A
C455        O456   1.267       .  A
C455        C661   1.473       .  S
O456       Cr461   2.006       .  S
O457       Cr461   1.962       .  S
O457        C458   1.258       .  A
C458        C739   1.493       .  S
Cr459       O462   1.770       .  S
Cr460       O462   1.770       .  S
Cr461       O462   1.764       .  S
O463       Cr481   1.986       .  S
O463        C471   1.261       .  A
O464       Cr481   2.034       .  S
O464        C465   1.274       .  A
C465        O466   1.262       .  A
C465       C1289   1.490       .  S
O466       Cr482   1.971       .  S
O467       Cr482   2.015       .  S
O467        C468   1.267       .  A
C468        O469   1.257       .  A
C468        C595   1.471       .  S
O469       Cr483   1.973       .  S
O470       Cr483   2.009       .  S
O470        C471   1.266       .  A
C471        C629   1.478       .  S
O472       Cr481   2.039       .  S
O472        C480   1.272       .  A
O473       Cr481   1.985       .  S
O473        C474   1.260       .  A
C474        O475   1.264       .  A
C474        C651   1.471   1_556  S
O475       Cr482   2.007       .  S
O476       Cr482   1.978       .  S
O476        C477   1.261       .  A
C477        O478   1.268       .  A
C477        C573   1.479       .  S
O478       Cr483   2.015       .  S
O479       Cr483   1.961       .  S
O479        C480   1.258       .  A
C480        C717   1.491       .  S
Cr481       O484   1.766       .  S
Cr482       O484   1.767       .  S
Cr483       O484   1.760       .  S
O485       Cr503   1.984       .  S
O485        C493   1.261       .  A
O486       Cr503   2.025       .  S
O486        C487   1.270       .  A
C487        O488   1.260       .  A
C487       C1641   1.481       .  S
O488       Cr504   1.959       .  S
O489       Cr504   2.011       .  S
O489        C490   1.267       .  A
C490        O491   1.261       .  A
C490        C695   1.479       .  S
O491       Cr505   1.980       .  S
O492       Cr505   2.009       .  S
O492        C493   1.266       .  A
C493        C563   1.478       .  S
O494       Cr503   2.022       .  S
O494        C502   1.269       .  A
O495       Cr503   1.988       .  S
O495        C496   1.261       .  A
C496        O497   1.265       .  A
C496        C529   1.478       .  S
O497       Cr504   2.008       .  S
O498       Cr504   1.978       .  S
O498        C499   1.262       .  A
C499        O500   1.267       .  A
C499        C585   1.477       .  S
O500       Cr505   2.012       .  S
O501       Cr505   1.959       .  S
O501        C502   1.258       .  A
C502        C859   1.481       .  S
Cr503       O506   1.771       .  S
Cr504       O506   1.762       .  S
Cr505       O506   1.763       .  S
O507       Cr525   1.980       .  S
O507        C515   1.262       .  A
O508       Cr525   2.029       .  S
O508        C509   1.272       .  A
C509        O510   1.261       .  A
C509       C1597   1.485       .  S
O510       Cr526   1.969       .  S
O511       Cr526   2.012       .  S
O511        C512   1.266       .  A
C512        O513   1.259       .  A
C512        C607   1.477       .  S
O513       Cr527   1.976       .  S
O514       Cr527   2.012       .  S
O514        C515   1.267       .  A
C515        C541   1.476       .  S
O516       Cr525   2.031       .  S
O516        C524   1.269       .  A
O517       Cr525   1.984       .  S
O517        C518   1.262       .  A
C518        O519   1.266       .  A
C518        C551   1.476       .  S
O519       Cr526   2.011       .  S
O520       Cr526   1.972       .  S
O520        C521   1.260       .  A
C521        O522   1.267       .  A
C521        C673   1.470       .  S
O522       Cr527   2.011       .  S
O523       Cr527   1.966       .  S
O523        C524   1.259       .  A
C524        C793   1.489       .  S
Cr525       O528   1.767       .  S
Cr526       O528   1.766       .  S
Cr527       O528   1.762       .  S
C529        C530   1.401       .  A
C529        C534   1.400       .  A
C530        C531   1.400   1_554  A
C530        H543   1.083       .  S
C531        C532   1.416       .  A
C531        H544   1.078       .  S
C532        C538   1.431       .  A
C532        C533   1.422       .  A
C533        C535   1.399       .  A
C533        C534   1.404   1_556  A
C534        H545   1.085       .  S
C535        C536   1.389       .  A
C535        H546   1.084       .  S
C536        C537   1.399       .  A
C536        H547   1.084       .  S
C537        C538   1.423       .  A
C537        C542   1.404       .  A
C538        C539   1.416       .  A
C539        C540   1.399       .  A
C539        H548   1.078       .  S
C540        C541   1.400       .  A
C540        H549   1.083       .  S
C541        C542   1.399       .  A
C542        H550   1.085       .  S
C551        C552   1.400       .  A
C551        C556   1.399       .  A
C552        C553   1.399       .  A
C552        H565   1.083       .  S
C553        C554   1.416       .  A
C553        H566   1.078       .  S
C554        C560   1.431       .  A
C554        C555   1.423       .  A
C555        C557   1.399       .  A
C555        C556   1.404       .  A
C556        H567   1.085       .  S
C557        C558   1.389       .  A
C557        H568   1.084       .  S
C558        C559   1.399       .  A
C558        H569   1.084       .  S
C559        C560   1.422       .  A
C559        C564   1.404       .  A
C560        C561   1.416       .  A
C561        C562   1.399       .  A
C561        H570   1.078       .  S
C562        C563   1.400       .  A
C562        H571   1.083       .  S
C563        C564   1.400       .  A
C564        H572   1.085       .  S
C573        C574   1.400   1_556  A
C573        C578   1.402       .  A
C574        C575   1.397       .  A
C574        H587   1.084       .  S
C575        C576   1.416       .  A
C575        H588   1.077       .  S
C576        C582   1.430       .  A
C576        C577   1.422   1_554  A
C577        C579   1.399       .  A
C577        C578   1.403       .  A
C578        H589   1.085       .  S
C579        C580   1.389       .  A
C579        H590   1.084       .  S
C580        C581   1.399   1_556  A
C580        H591   1.084       .  S
C581        C582   1.424       .  A
C581        C586   1.405       .  A
C582        C583   1.414       .  A
C583        C584   1.395       .  A
C583        H592   1.077       .  S
C584        C585   1.401       .  A
C584        H593   1.084       .  S
C585        C586   1.400       .  A
C586        H594   1.085       .  S
C595        C596   1.398       .  A
C595        C600   1.400       .  A
C596        C597   1.398       .  A
C596        H609   1.084       .  S
C597        C598   1.417       .  A
C597        H610   1.078       .  S
C598        C604   1.429       .  A
C598        C599   1.422       .  A
C599        C601   1.400       .  A
C599        C600   1.401       .  A
C600        H611   1.085       .  S
C601        C602   1.389       .  A
C601        H612   1.084       .  S
C602        C603   1.399       .  A
C602        H613   1.084       .  S
C603        C604   1.423       .  A
C603        C608   1.405       .  A
C604        C605   1.413       .  A
C605        C606   1.395       .  A
C605        H614   1.078       .  S
C606        C607   1.402       .  A
C606        H615   1.084       .  S
C607        C608   1.400       .  A
C608        H616   1.085       .  S
C617        C618   1.399       .  A
C617        C622   1.403       .  A
C618        C619   1.398       .  A
C618        H631   1.083       .  S
C619        C620   1.416       .  A
C619        H632   1.078       .  S
C620        C626   1.430       .  A
C620        C621   1.421       .  A
C621        C623   1.400       .  A
C621        C622   1.406       .  A
C622        H633   1.085       .  S
C623        C624   1.392       .  A
C623        H634   1.084       .  S
C624        C625   1.400       .  A
C624        H635   1.084       .  S
C625        C626   1.423       .  A
C625        C630   1.408       .  A
C626        C627   1.414       .  A
C627        C628   1.396       .  A
C627        H636   1.078       .  S
C628        C629   1.399       .  A
C628        H637   1.084       .  S
C629        C630   1.402       .  A
C630        H638   1.085       .  S
C639        C640   1.399       .  A
C639        C644   1.403       .  A
C640        C641   1.397       .  A
C640        H653   1.083       .  S
C641        C642   1.415       .  A
C641        H654   1.078       .  S
C642        C648   1.428       .  A
C642        C643   1.421       .  A
C643        C645   1.400       .  A
C643        C644   1.404       .  A
C644        H655   1.085       .  S
C645        C646   1.391       .  A
C645        H656   1.084       .  S
C646        C647   1.400       .  A
C646        H657   1.084       .  S
C647        C648   1.423       .  A
C647        C652   1.405       .  A
C648        C649   1.415       .  A
C649        C650   1.396       .  A
C649        H658   1.078       .  S
C650        C651   1.397       .  A
C650        H659   1.084       .  S
C651        C652   1.400       .  A
C652        H660   1.085       .  S
C661        C662   1.400       .  A
C661        C666   1.400       .  A
C662        C663   1.391       .  A
C662        H675   1.084       .  S
C663        C664   1.413       .  A
C663        H676   1.077       .  S
C664        C670   1.426       .  A
C664        C665   1.423       .  A
C665        C667   1.399       .  A
C665        C666   1.404       .  A
C666        H677   1.085       .  S
C667        C668   1.389       .  A
C667        H678   1.084       .  S
C668        C669   1.400       .  A
C668        H679   1.084       .  S
C669        C670   1.421       .  A
C669        C674   1.401       .  A
C670        C671   1.416       .  A
C671        C672   1.394       .  A
C671        H680   1.077       .  S
C672        C673   1.397       .  A
C672        H681   1.084       .  S
C673        C674   1.401       .  A
C674        H682   1.085       .  S
C683        C684   1.398       .  A
C683        C688   1.403       .  A
C684        C685   1.399       .  A
C684        H697   1.083       .  S
C685        C686   1.418       .  A
C685        H698   1.077       .  S
C686        C692   1.430       .  A
C686        C687   1.421       .  A
C687        C689   1.401       .  A
C687        C688   1.404       .  A
C688        H699   1.085       .  S
C689        C690   1.391       .  A
C689        H700   1.084       .  S
C690        C691   1.399       .  A
C690        H701   1.084       .  S
C691        C692   1.423       .  A
C691        C696   1.408       .  A
C692        C693   1.412       .  A
C693        C694   1.394       .  A
C693        H702   1.078       .  S
C694        C695   1.402       .  A
C694        H703   1.084       .  S
C695        C696   1.402       .  A
C696        H704   1.085       .  S
C705        C706   1.402       .  A
C705        C710   1.402       .  A
C706        C707   1.406       .  A
C706        H719   1.083       .  S
C707        C708   1.418       .  A
C707        H720   1.078       .  S
C708        C714   1.437   1_455  A
C708        C709   1.423       .  A
C709        C711   1.398       .  A
C709        C710   1.404       .  A
C710        H721   1.085       .  S
C711        C712   1.387   1_455  A
C711        H722   1.084       .  S
C712        C713   1.399       .  A
C712        H723   1.084       .  S
C713        C714   1.422       .  A
C713        C718   1.402       .  A
C714        C715   1.419       .  A
C715        C716   1.407       .  A
C715        H724   1.078       .  S
C716        C717   1.403       .  A
C716        H725   1.083       .  S
C717        C718   1.404       .  A
C718        H726   1.085       .  S
C727        C728   1.403       .  A
C727        C732   1.407       .  A
C728        C729   1.393       .  A
C728        H741   1.083       .  S
C729        C730   1.413       .  A
C729        H742   1.077       .  S
C730        C736   1.433   1_455  A
C730        C731   1.422       .  A
C731        C733   1.402       .  A
C731        C732   1.416       .  A
C732        H743   1.084       .  S
C733        C734   1.397   1_455  A
C733        H744   1.084       .  S
C734        C735   1.402       .  A
C734        H745   1.084       .  S
C735        C736   1.423       .  A
C735        C740   1.417       .  A
C736        C737   1.412       .  A
C737        C738   1.392       .  A
C737        H746   1.077       .  S
C738        C739   1.404       .  A
C738        H747   1.083       .  S
C739        C740   1.407       .  A
C740        H748   1.084       .  S
C749        C750   1.399       .  A
C749        C754   1.401       .  A
C750        C751   1.396       .  A
C750        H763   1.084       .  S
C751        C752   1.415       .  A
C751        H764   1.078       .  S
C752        C758   1.429       .  A
C752        C753   1.422       .  A
C753        C755   1.400       .  A
C753        C754   1.405       .  A
C754        H765   1.085       .  S
C755        C756   1.390       .  A
C755        H766   1.084       .  S
C756        C757   1.399       .  A
C756        H767   1.084       .  S
C757        C758   1.423       .  A
C757        C762   1.405       .  A
C758        C759   1.415       .  A
C759        C760   1.395       .  A
C759        H768   1.077       .  S
C760        C761   1.398       .  A
C760        H769   1.084       .  S
C761        C762   1.399       .  A
C762        H770   1.085       .  S
C771        C772   1.400       .  A
C771        C776   1.403       .  A
C772        C773   1.399       .  A
C772        H785   1.083       .  S
C773        C774   1.416       .  A
C773        H786   1.078       .  S
C774        C780   1.432       .  A
C774        C775   1.422       .  A
C775        C777   1.400       .  A
C775        C776   1.408       .  A
C776        H787   1.085       .  S
C777        C778   1.391       .  A
C777        H788   1.084       .  S
C778        C779   1.400       .  A
C778        H789   1.084       .  S
C779        C780   1.423       .  A
C779        C784   1.408       .  A
C780        C781   1.415       .  A
C781        C782   1.397       .  A
C781        H790   1.077       .  S
C782        C783   1.400       .  A
C782        H791   1.084       .  S
C783        C784   1.401       .  A
C784        H792   1.085       .  S
C793        C794   1.402       .  A
C793        C798   1.407       .  A
C794        C795   1.392       .  A
C794        H807   1.083       .  S
C795        C796   1.413       .  A
C795        H808   1.077       .  S
C796        C802   1.430   1_655  A
C796        C797   1.421       .  A
C797        C799   1.403       .  A
C797        C798   1.414       .  A
C798        H809   1.084       .  S
C799        C800   1.397   1_655  A
C799        H810   1.084       .  S
C800        C801   1.402       .  A
C800        H811   1.084       .  S
C801        C802   1.423       .  A
C801        C806   1.417       .  A
C802        C803   1.410       .  A
C803        C804   1.390       .  A
C803        H812   1.077       .  S
C804        C805   1.403       .  A
C804        H813   1.083       .  S
C805        C806   1.407       .  A
C806        H814   1.084       .  S
C815        C816   1.398       .  A
C815        C820   1.402       .  A
C816        C817   1.399       .  A
C816        H829   1.083       .  S
C817        C818   1.418       .  A
C817        H830   1.078       .  S
C818        C824   1.428       .  A
C818        C819   1.420       .  A
C819        C821   1.400       .  A
C819        C820   1.400       .  A
C820        H831   1.085       .  S
C821        C822   1.389       .  A
C821        H832   1.084       .  S
C822        C823   1.399       .  A
C822        H833   1.084       .  S
C823        C824   1.424       .  A
C823        C828   1.406       .  A
C824        C825   1.411       .  A
C825        C826   1.395       .  A
C825        H834   1.078       .  S
C826        C827   1.403       .  A
C826        H835   1.083       .  S
C827        C828   1.400       .  A
C828        H836   1.084       .  S
C837        C838   1.399       .  A
C837        C842   1.404       .  A
C838        C839   1.400       .  A
C838        H851   1.083       .  S
C839        C840   1.418       .  A
C839        H852   1.077       .  S
C840        C846   1.433       .  A
C840        C841   1.421       .  A
C841        C843   1.401       .  A
C841        C842   1.407       .  A
C842        H853   1.085       .  S
C843        C844   1.392       .  A
C843        H854   1.084       .  S
C844        C845   1.400       .  A
C844        H855   1.084       .  S
C845        C846   1.424       .  A
C845        C850   1.411       .  A
C846        C847   1.413       .  A
C847        C848   1.397       .  A
C847        H856   1.077       .  S
C848        C849   1.403       .  A
C848        H857   1.083       .  S
C849        C850   1.404       .  A
C850        H858   1.084       .  S
C859        C860   1.401       .  A
C859        C864   1.402       .  A
C860        C861   1.401       .  A
C860        H873   1.083       .  S
C861        C862   1.417       .  A
C861        H874   1.078       .  S
C862        C868   1.431   1_655  A
C862        C863   1.422       .  A
C863        C865   1.398       .  A
C863        C864   1.399       .  A
C864        H875   1.085       .  S
C865        C866   1.385   1_655  A
C865        H876   1.084       .  S
C866        C867   1.398       .  A
C866        H877   1.084       .  S
C867        C868   1.422       .  A
C867        C872   1.399       .  A
C868        C869   1.417       .  A
C869        C870   1.401       .  A
C869        H878   1.077       .  S
C870        C871   1.400       .  A
C870        H879   1.083       .  S
C871        C872   1.401       .  A
C872        H880   1.085       .  S
C881        C882   1.401       .  A
C881        C886   1.400   1_556  A
C882        C883   1.393       .  A
C882        H895   1.084       .  S
C883        C884   1.412   1_556  A
C883        H896   1.078       .  S
C884        C890   1.427       .  A
C884        C885   1.422       .  A
C885        C887   1.399       .  A
C885        C886   1.405       .  A
C886        H897   1.085       .  S
C887        C888   1.390       .  A
C887        H898   1.084       .  S
C888        C889   1.401       .  A
C888        H899   1.084       .  S
C889        C890   1.421       .  A
C889        C894   1.403       .  A
C890        C891   1.416       .  A
C891        C892   1.396       .  A
C891        H900   1.078   1_554  S
C892        C893   1.398       .  A
C892        H901   1.084       .  S
C893        C894   1.402       .  A
C894        H902   1.085       .  S
C903        C904   1.398       .  A
C903        C908   1.398       .  A
C904        C905   1.398       .  A
C904        H917   1.084       .  S
C905        C906   1.417       .  A
C905        H918   1.077       .  S
C906        C912   1.428       .  A
C906        C907   1.422       .  A
C907        C909   1.398       .  A
C907        C908   1.399       .  A
C908        H919   1.085       .  S
C909        C910   1.387       .  A
C909        H920   1.084       .  S
C910        C911   1.398       .  A
C910        H921   1.084       .  S
C911        C912   1.423       .  A
C911        C916   1.401       .  A
C912        C913   1.414       .  A
C913        C914   1.396       .  A
C913        H922   1.078       .  S
C914        C915   1.402       .  A
C914        H923   1.083       .  S
C915        C916   1.400       .  A
C916        H924   1.085       .  S
C925        C926   1.399       .  A
C925        C930   1.399       .  A
C926        C927   1.399       .  A
C926        H939   1.084       .  S
C927        C928   1.416       .  A
C927        H940   1.078       .  S
C928        C934   1.429       .  A
C928        C929   1.422       .  A
C929        C931   1.398       .  A
C929        C930   1.401       .  A
C930        H941   1.085       .  S
C931        C932   1.388       .  A
C931        H942   1.084       .  S
C932        C933   1.398       .  A
C932        H943   1.084       .  S
C933        C934   1.424       .  A
C933        C938   1.402       .  A
C934        C935   1.415       .  A
C935        C936   1.397       .  A
C935        H944   1.078       .  S
C936        C937   1.399   1_556  A
C936        H945   1.084   1_556  S
C937        C938   1.397   1_554  A
C938        H946   1.085   1_556  S
C947        C948   1.399       .  A
C947        C952   1.400       .  A
C948        C949   1.397       .  A
C948        H961   1.084       .  S
C949        C950   1.415       .  A
C949        H962   1.077       .  S
C950        C956   1.432       .  A
C950        C951   1.424       .  A
C951        C953   1.400       .  A
C951        C952   1.408       .  A
C952        H963   1.085       .  S
C953        C954   1.391       .  A
C953        H964   1.084       .  S
C954        C955   1.400       .  A
C954        H965   1.084       .  S
C955        C956   1.422       .  A
C955        C960   1.406       .  A
C956        C957   1.416       .  A
C957        C958   1.399       .  A
C957        H966   1.078       .  S
C958        C959   1.400       .  A
C958        H967   1.083       .  S
C959        C960   1.403       .  A
C960        H968   1.085       .  S
C969        C970   1.403       .  A
C969        C974   1.408       .  A
C970        C971   1.397       .  A
C970        H983   1.083       .  S
C971        C972   1.415       .  A
C971        H984   1.077       .  S
C972        C978   1.436       .  A
C972        C973   1.422       .  A
C973        C975   1.402       .  A
C973        C974   1.415       .  A
C974        H985   1.084       .  S
C975        C976   1.397       .  A
C975        H986   1.084       .  S
C976        C977   1.402       .  A
C976        H987   1.084       .  S
C977        C978   1.424       .  A
C977        C982   1.418       .  A
C978        C979   1.412       .  A
C979        C980   1.395       .  A
C979        H988   1.077       .  S
C980        C981   1.405       .  A
C980        H989   1.083       .  S
C981        C982   1.408       .  A
C982        H990   1.084       .  S
C991        C992   1.402       .  A
C991        C996   1.405       .  A
C992        C993   1.393       .  A
C992       H1005   1.083       .  S
C993        C994   1.413       .  A
C993       H1006   1.077       .  S
C994       C1000   1.430       .  A
C994        C995   1.422       .  A
C995        C997   1.402       .  A
C995        C996   1.412       .  A
C996       H1007   1.084       .  S
C997        C998   1.396       .  A
C997       H1008   1.084       .  S
C998        C999   1.402       .  A
C998       H1009   1.084       .  S
C999       C1000   1.422       .  A
C999       C1004   1.413       .  A
C1000      C1001   1.412       .  A
C1001      C1002   1.392       .  A
C1001      H1010   1.077       .  S
C1002      C1003   1.402       .  A
C1002      H1011   1.083       .  S
C1003      C1004   1.406       .  A
C1004      H1012   1.084       .  S
C1013      C1014   1.397       .  A
C1013      C1018   1.398       .  A
C1014      C1015   1.398       .  A
C1014      H1027   1.084       .  S
C1015      C1016   1.416       .  A
C1015      H1028   1.077       .  S
C1016      C1022   1.430       .  A
C1016      C1017   1.424       .  A
C1017      C1019   1.399       .  A
C1017      C1018   1.404       .  A
C1018      H1029   1.085       .  S
C1019      C1020   1.389       .  A
C1019      H1030   1.084       .  S
C1020      C1021   1.399       .  A
C1020      H1031   1.084       .  S
C1021      C1022   1.421       .  A
C1021      C1026   1.403       .  A
C1022      C1023   1.416       .  A
C1023      C1024   1.399       .  A
C1023      H1032   1.077       .  S
C1024      C1025   1.400       .  A
C1024      H1033   1.083       .  S
C1025      C1026   1.402       .  A
C1026      H1034   1.085       .  S
C1035      C1036   1.400       .  A
C1035      C1040   1.400       .  A
C1036      C1037   1.395       .  A
C1036      H1049   1.084       .  S
C1037      C1038   1.414       .  A
C1037      H1050   1.077       .  S
C1038      C1044   1.430       .  A
C1038      C1039   1.425       .  A
C1039      C1041   1.399       .  A
C1039      C1040   1.407       .  A
C1040      H1051   1.085       .  S
C1041      C1042   1.390       .  A
C1041      H1052   1.084       .  S
C1042      C1043   1.400       .  A
C1042      H1053   1.084       .  S
C1043      C1044   1.421       .  A
C1043      C1048   1.404       .  A
C1044      C1045   1.417       .  A
C1045      C1046   1.399       .  A
C1045      H1054   1.077       .  S
C1046      C1047   1.398       .  A
C1046      H1055   1.084       .  S
C1047      C1048   1.400       .  A
C1048      H1056   1.085       .  S
C1057      C1058   1.400       .  A
C1057      C1062   1.404       .  A
C1058      C1059   1.396       .  A
C1058      H1071   1.083       .  S
C1059      C1060   1.416       .  A
C1059      H1072   1.077   1_556  S
C1060      C1066   1.430       .  A
C1060      C1061   1.422       .  A
C1061      C1063   1.400       .  A
C1061      C1062   1.405       .  A
C1062      H1073   1.084       .  S
C1063      C1064   1.391       .  A
C1063      H1074   1.084       .  S
C1064      C1065   1.399       .  A
C1064      H1075   1.084       .  S
C1065      C1066   1.424       .  A
C1065      C1070   1.408       .  A
C1066      C1067   1.413   1_556  A
C1067      C1068   1.393       .  A
C1067      H1076   1.077       .  S
C1068      C1069   1.400       .  A
C1068      H1077   1.084       .  S
C1069      C1070   1.400   1_554  A
C1070      H1078   1.085       .  S
C1079      C1080   1.401       .  A
C1079      C1084   1.399       .  A
C1080      C1081   1.394       .  A
C1080      H1093   1.083       .  S
C1081      C1082   1.412       .  A
C1081      H1094   1.078       .  S
C1082      C1088   1.426       .  A
C1082      C1083   1.423       .  A
C1083      C1085   1.398       .  A
C1083      C1084   1.402       .  A
C1084      H1095   1.085       .  S
C1085      C1086   1.387       .  A
C1085      H1096   1.084       .  S
C1086      C1087   1.399       .  A
C1086      H1097   1.084       .  S
C1087      C1088   1.421       .  A
C1087      C1092   1.398       .  A
C1088      C1089   1.418       .  A
C1089      C1090   1.398       .  A
C1089      H1098   1.078       .  S
C1090      C1091   1.397       .  A
C1090      H1099   1.083       .  S
C1091      C1092   1.400       .  A
C1092      H1100   1.085       .  S
C1101      C1102   1.401       .  A
C1101      C1106   1.403       .  A
C1102      C1103   1.398       .  A
C1102      H1115   1.083       .  S
C1103      C1104   1.415       .  A
C1103      H1116   1.077       .  S
C1104      C1110   1.431       .  A
C1104      C1105   1.422       .  A
C1105      C1107   1.400       .  A
C1105      C1106   1.406       .  A
C1106      H1117   1.084       .  S
C1107      C1108   1.390       .  A
C1107      H1118   1.084       .  S
C1108      C1109   1.399       .  A
C1108      H1119   1.084       .  S
C1109      C1110   1.423       .  A
C1109      C1114   1.405       .  A
C1110      C1111   1.417       .  A
C1111      C1112   1.398       .  A
C1111      H1120   1.077       .  S
C1112      C1113   1.397       .  A
C1112      H1121   1.084       .  S
C1113      C1114   1.399       .  A
C1114      H1122   1.085       .  S
C1123      C1124   1.400       .  A
C1123      C1128   1.401       .  A
C1124      C1125   1.398       .  A
C1124      H1137   1.084       .  S
C1125      C1126   1.416       .  A
C1125      H1138   1.078       .  S
C1126      C1132   1.430       .  A
C1126      C1127   1.422       .  A
C1127      C1129   1.400       .  A
C1127      C1128   1.405       .  A
C1128      H1139   1.085       .  S
C1129      C1130   1.391       .  A
C1129      H1140   1.084       .  S
C1130      C1131   1.400       .  A
C1130      H1141   1.084       .  S
C1131      C1132   1.423       .  A
C1131      C1136   1.406   1_554  A
C1132      C1133   1.414       .  A
C1133      C1134   1.396   1_554  A
C1133      H1142   1.078       .  S
C1134      C1135   1.400       .  A
C1134      H1143   1.084       .  S
C1135      C1136   1.400       .  A
C1136      H1144   1.085       .  S
C1145      C1146   1.399       .  A
C1145      C1150   1.406       .  A
C1146      C1147   1.399       .  A
C1146      H1159   1.083       .  S
C1147      C1148   1.417       .  A
C1147      H1160   1.077       .  S
C1148      C1154   1.432       .  A
C1148      C1149   1.422       .  A
C1149      C1151   1.402       .  A
C1149      C1150   1.408       .  A
C1150      H1161   1.085       .  S
C1151      C1152   1.393       .  A
C1151      H1162   1.084       .  S
C1152      C1153   1.400       .  A
C1152      H1163   1.084       .  S
C1153      C1154   1.423       .  A
C1153      C1158   1.410       .  A
C1154      C1155   1.413       .  A
C1155      C1156   1.396       .  A
C1155      H1164   1.078       .  S
C1156      C1157   1.402       .  A
C1156      H1165   1.083       .  S
C1157      C1158   1.405       .  A
C1158      H1166   1.084       .  S
C1167      C1168   1.403       .  A
C1167      C1172   1.402       .  A
C1168      C1169   1.397       .  A
C1168      H1181   1.083       .  S
C1169      C1170   1.413       .  A
C1169      H1182   1.078       .  S
C1170      C1176   1.430       .  A
C1170      C1171   1.423       .  A
C1171      C1173   1.399       .  A
C1171      C1172   1.407       .  A
C1172      H1183   1.085       .  S
C1173      C1174   1.390       .  A
C1173      H1184   1.084       .  S
C1174      C1175   1.400       .  A
C1174      H1185   1.084       .  S
C1175      C1176   1.421       .  A
C1175      C1180   1.403       .  A
C1176      C1177   1.417       .  A
C1177      C1178   1.400       .  A
C1177      H1186   1.078       .  S
C1178      C1179   1.399       .  A
C1178      H1187   1.083       .  S
C1179      C1180   1.402       .  A
C1180      H1188   1.085       .  S
C1189      C1190   1.402       .  A
C1189      C1194   1.402       .  A
C1190      C1191   1.405       .  A
C1190      H1203   1.083       .  S
C1191      C1192   1.418       .  A
C1191      H1204   1.078       .  S
C1192      C1198   1.434       .  A
C1192      C1193   1.422       .  A
C1193      C1195   1.398       .  A
C1193      C1194   1.400       .  A
C1194      H1205   1.085       .  S
C1195      C1196   1.385       .  A
C1195      H1206   1.084       .  S
C1196      C1197   1.398       .  A
C1196      H1207   1.084       .  S
C1197      C1198   1.423       .  A
C1197      C1202   1.401       .  A
C1198      C1199   1.417       .  A
C1199      C1200   1.404       .  A
C1199      H1208   1.078       .  S
C1200      C1201   1.402       .  A
C1200      H1209   1.083       .  S
C1201      C1202   1.400       .  A
C1202      H1210   1.085       .  S
C1211      C1212   1.403       .  A
C1211      C1216   1.407       .  A
C1212      C1213   1.389       .  A
C1212      H1225   1.083       .  S
C1213      C1214   1.411       .  A
C1213      H1226   1.076       .  S
C1214      C1220   1.431       .  A
C1214      C1215   1.423       .  A
C1215      C1217   1.402       .  A
C1215      C1216   1.416       .  A
C1216      H1227   1.084       .  S
C1217      C1218   1.398       .  A
C1217      H1228   1.084       .  S
C1218      C1219   1.402       .  A
C1218      H1229   1.084       .  S
C1219      C1220   1.423       .  A
C1219      C1224   1.416       .  A
C1220      C1221   1.412       .  A
C1221      C1222   1.389       .  A
C1221      H1230   1.076       .  S
C1222      C1223   1.401       .  A
C1222      H1231   1.084       .  S
C1223      C1224   1.406       .  A
C1224      H1232   1.084       .  S
C1233      C1234   1.398       .  A
C1233      C1238   1.400       .  A
C1234      C1235   1.396       .  A
C1234      H1247   1.084       .  S
C1235      C1236   1.415       .  A
C1235      H1248   1.077       .  S
C1236      C1242   1.430       .  A
C1236      C1237   1.423       .  A
C1237      C1239   1.400       .  A
C1237      C1238   1.407       .  A
C1238      H1249   1.085       .  S
C1239      C1240   1.391       .  A
C1239      H1250   1.084       .  S
C1240      C1241   1.400       .  A
C1240      H1251   1.084       .  S
C1241      C1242   1.423       .  A
C1241      C1246   1.407       .  A
C1242      C1243   1.415       .  A
C1243      C1244   1.395       .  A
C1243      H1252   1.077       .  S
C1244      C1245   1.399       .  A
C1244      H1253   1.084       .  S
C1245      C1246   1.401       .  A
C1246      H1254   1.085       .  S
C1255      C1256   1.400       .  A
C1255      C1260   1.401       .  A
C1256      C1257   1.399       .  A
C1256      H1269   1.084       .  S
C1257      C1258   1.416       .  A
C1257      H1270   1.078       .  S
C1258      C1264   1.431       .  A
C1258      C1259   1.422       .  A
C1259      C1261   1.400       .  A
C1259      C1260   1.405       .  A
C1260      H1271   1.085       .  S
C1261      C1262   1.390       .  A
C1261      H1272   1.084       .  S
C1262      C1263   1.399       .  A
C1262      H1273   1.084       .  S
C1263      C1264   1.423       .  A
C1263      C1268   1.406       .  A
C1264      C1265   1.415       .  A
C1265      C1266   1.397       .  A
C1265      H1274   1.078       .  S
C1266      C1267   1.400       .  A
C1266      H1275   1.084       .  S
C1267      C1268   1.400       .  A
C1268      H1276   1.085       .  S
C1277      C1278   1.403       .  A
C1277      C1282   1.404       .  A
C1278      C1279   1.401       .  A
C1278      H1291   1.083       .  S
C1279      C1280   1.416       .  A
C1279      H1292   1.077       .  S
C1280      C1286   1.435       .  A
C1280      C1281   1.423       .  A
C1281      C1283   1.399       .  A
C1281      C1282   1.406       .  A
C1282      H1293   1.084       .  S
C1283      C1284   1.389       .  A
C1283      H1294   1.084       .  S
C1284      C1285   1.400       .  A
C1284      H1295   1.084       .  S
C1285      C1286   1.422       .  A
C1285      C1290   1.406       .  A
C1286      C1287   1.417       .  A
C1287      C1288   1.402       .  A
C1287      H1296   1.077       .  S
C1288      C1289   1.402       .  A
C1288      H1297   1.083       .  S
C1289      C1290   1.405       .  A
C1290      H1298   1.084       .  S
C1299      C1300   1.402       .  A
C1299      C1304   1.403       .  A
C1300      C1301   1.404       .  A
C1300      H1313   1.083       .  S
C1301      C1302   1.417       .  A
C1301      H1314   1.078       .  S
C1302      C1308   1.436       .  A
C1302      C1303   1.423       .  A
C1303      C1305   1.399       .  A
C1303      C1304   1.404       .  A
C1304      H1315   1.085       .  S
C1305      C1306   1.387       .  A
C1305      H1316   1.084       .  S
C1306      C1307   1.399       .  A
C1306      H1317   1.084       .  S
C1307      C1308   1.422       .  A
C1307      C1312   1.403       .  A
C1308      C1309   1.418       .  A
C1309      C1310   1.404       .  A
C1309      H1318   1.078       .  S
C1310      C1311   1.402       .  A
C1310      H1319   1.083       .  S
C1311      C1312   1.404       .  A
C1312      H1320   1.084       .  S
C1321      C1322   1.399       .  A
C1321      C1326   1.402       .  A
C1322      C1323   1.398       .  A
C1322      H1335   1.084       .  S
C1323      C1324   1.417       .  A
C1323      H1336   1.077   1_556  S
C1324      C1330   1.430       .  A
C1324      C1325   1.422       .  A
C1325      C1327   1.400       .  A
C1325      C1326   1.404       .  A
C1326      H1337   1.085       .  S
C1327      C1328   1.390       .  A
C1327      H1338   1.084       .  S
C1328      C1329   1.399       .  A
C1328      H1339   1.084       .  S
C1329      C1330   1.423       .  A
C1329      C1334   1.407       .  A
C1330      C1331   1.413   1_556  A
C1331      C1332   1.396       .  A
C1331      H1340   1.078       .  S
C1332      C1333   1.402       .  A
C1332      H1341   1.084       .  S
C1333      C1334   1.401   1_554  A
C1334      H1342   1.085       .  S
C1343      C1344   1.399       .  A
C1343      C1348   1.401       .  A
C1344      C1345   1.392       .  A
C1344      H1357   1.084       .  S
C1345      C1346   1.413       .  A
C1345      H1358   1.077       .  S
C1346      C1352   1.426       .  A
C1346      C1347   1.423       .  A
C1347      C1349   1.400       .  A
C1347      C1348   1.404       .  A
C1348      H1359   1.085       .  S
C1349      C1350   1.390       .  A
C1349      H1360   1.084       .  S
C1350      C1351   1.400       .  A
C1350      H1361   1.084       .  S
C1351      C1352   1.422       .  A
C1351      C1356   1.404       .  A
C1352      C1353   1.415       .  A
C1353      C1354   1.393       .  A
C1353      H1362   1.077       .  S
C1354      C1355   1.398       .  A
C1354      H1363   1.084       .  S
C1355      C1356   1.402       .  A
C1356      H1364   1.085       .  S
C1365      C1366   1.403       .  A
C1365      C1370   1.404       .  A
C1366      C1367   1.401       .  A
C1366      H1379   1.083       .  S
C1367      C1368   1.416       .  A
C1367      H1380   1.077       .  S
C1368      C1374   1.436       .  A
C1368      C1369   1.423       .  A
C1369      C1371   1.399       .  A
C1369      C1370   1.407       .  A
C1370      H1381   1.084       .  S
C1371      C1372   1.389       .  A
C1371      H1382   1.084       .  S
C1372      C1373   1.400       .  A
C1372      H1383   1.084       .  S
C1373      C1374   1.422       .  A
C1373      C1378   1.406       .  A
C1374      C1375   1.417       .  A
C1375      C1376   1.403       .  A
C1375      H1384   1.077       .  S
C1376      C1377   1.402       .  A
C1376      H1385   1.083       .  S
C1377      C1378   1.405       .  A
C1378      H1386   1.084       .  S
C1387      C1388   1.404       .  A
C1387      C1392   1.401       .  A
C1388      C1389   1.406       .  A
C1388      H1401   1.083       .  S
C1389      C1390   1.417       .  A
C1389      H1402   1.078       .  S
C1390      C1396   1.436       .  A
C1390      C1391   1.423       .  A
C1391      C1393   1.397       .  A
C1391      C1392   1.401       .  A
C1392      H1403   1.084       .  S
C1393      C1394   1.384       .  A
C1393      H1404   1.084       .  S
C1394      C1395   1.397       .  A
C1394      H1405   1.084       .  S
C1395      C1396   1.422       .  A
C1395      C1400   1.398       .  A
C1396      C1397   1.419       .  A
C1397      C1398   1.407       .  A
C1397      H1406   1.078       .  S
C1398      C1399   1.403       .  A
C1398      H1407   1.083       .  S
C1399      C1400   1.401       .  A
C1400      H1408   1.085       .  S
C1409      C1410   1.403       .  A
C1409      C1414   1.400       .  A
C1410      C1411   1.391       .  A
C1410      H1423   1.084       .  S
C1411      C1412   1.409       .  A
C1411      H1424   1.078       .  S
C1412      C1418   1.425       .  A
C1412      C1413   1.423       .  A
C1413      C1415   1.399       .  A
C1413      C1414   1.407       .  A
C1414      H1425   1.084       .  S
C1415      C1416   1.391       .  A
C1415      H1426   1.084       .  S
C1416      C1417   1.401       .  A
C1416      H1427   1.084       .  S
C1417      C1418   1.419       .  A
C1417      C1422   1.400       .  A
C1418      C1419   1.418       .  A
C1419      C1420   1.398       .  A
C1419      H1428   1.078       .  S
C1420      C1421   1.397       .  A
C1420      H1429   1.083       .  S
C1421      C1422   1.403       .  A
C1422      H1430   1.085       .  S
C1431      C1432   1.398       .  A
C1431      C1436   1.403       .  A
C1432      C1433   1.394       .  A
C1432      H1445   1.084       .  S
C1433      C1434   1.415       .  A
C1433      H1446   1.077       .  S
C1434      C1440   1.428       .  A
C1434      C1435   1.422       .  A
C1435      C1437   1.401       .  A
C1435      C1436   1.408       .  A
C1436      H1447   1.085       .  S
C1437      C1438   1.393       .  A
C1437      H1448   1.084       .  S
C1438      C1439   1.401       .  A
C1438      H1449   1.084       .  S
C1439      C1440   1.423       .  A
C1439      C1444   1.409       .  A
C1440      C1441   1.413       .  A
C1441      C1442   1.393       .  A
C1441      H1450   1.077       .  S
C1442      C1443   1.399       .  A
C1442      H1451   1.084       .  S
C1443      C1444   1.403       .  A
C1444      H1452   1.085       .  S
C1453      C1454   1.397   1_556  A
C1453      C1458   1.399   1_556  A
C1454      C1455   1.396       .  A
C1454      H1467   1.084   1_554  S
C1455      C1456   1.415       .  A
C1455      H1468   1.077       .  S
C1456      C1462   1.430       .  A
C1456      C1457   1.424       .  A
C1457      C1459   1.399       .  A
C1457      C1458   1.406       .  A
C1458      H1469   1.085   1_554  S
C1459      C1460   1.390       .  A
C1459      H1470   1.084       .  S
C1460      C1461   1.400       .  A
C1460      H1471   1.084       .  S
C1461      C1462   1.422       .  A
C1461      C1466   1.405       .  A
C1462      C1463   1.416       .  A
C1463      C1464   1.397       .  A
C1463      H1472   1.077       .  S
C1464      C1465   1.399       .  A
C1464      H1473   1.083       .  S
C1465      C1466   1.403       .  A
C1466      H1474   1.085       .  S
C1475      C1476   1.402       .  A
C1475      C1480   1.400       .  A
C1476      C1477   1.395       .  A
C1476      H1489   1.083       .  S
C1477      C1478   1.413       .  A
C1477      H1490   1.077       .  S
C1478      C1484   1.429       .  A
C1478      C1479   1.423       .  A
C1479      C1481   1.399       .  A
C1479      C1480   1.405       .  A
C1480      H1491   1.085       .  S
C1481      C1482   1.389       .  A
C1481      H1492   1.084       .  S
C1482      C1483   1.399       .  A
C1482      H1493   1.084       .  S
C1483      C1484   1.422       .  A
C1483      C1488   1.402       .  A
C1484      C1485   1.417       .  A
C1485      C1486   1.397       .  A
C1485      H1494   1.077       .  S
C1486      C1487   1.398       .  A
C1486      H1495   1.084       .  S
C1487      C1488   1.401       .  A
C1488      H1496   1.085       .  S
C1497      C1498   1.404       .  A
C1497      C1502   1.405       .  A
C1498      C1499   1.396       .  A
C1498      H1511   1.083       .  S
C1499      C1500   1.414       .  A
C1499      H1512   1.077       .  S
C1500      C1506   1.435       .  A
C1500      C1501   1.423       .  A
C1501      C1503   1.401       .  A
C1501      C1502   1.413       .  A
C1502      H1513   1.084       .  S
C1503      C1504   1.394       .  A
C1503      H1514   1.084       .  S
C1504      C1505   1.401       .  A
C1504      H1515   1.084       .  S
C1505      C1506   1.423       .  A
C1505      C1510   1.413       .  A
C1506      C1507   1.414       .  A
C1507      C1508   1.397       .  A
C1507      H1516   1.077       .  S
C1508      C1509   1.403       .  A
C1508      H1517   1.083       .  S
C1509      C1510   1.406       .  A
C1510      H1518   1.084       .  S
C1519      C1520   1.401       .  A
C1519      C1524   1.406       .  A
C1520      C1521   1.394       .  A
C1520      H1533   1.083       .  S
C1521      C1522   1.414       .  A
C1521      H1534   1.077       .  S
C1522      C1528   1.431       .  A
C1522      C1523   1.422       .  A
C1523      C1525   1.401       .  A
C1523      C1524   1.411       .  A
C1524      H1535   1.084       .  S
C1525      C1526   1.394       .  A
C1525      H1536   1.084       .  S
C1526      C1527   1.401       .  A
C1526      H1537   1.084       .  S
C1527      C1528   1.423       .  A
C1527      C1532   1.412       .  A
C1528      C1529   1.412       .  A
C1529      C1530   1.393       .  A
C1529      H1538   1.077       .  S
C1530      C1531   1.403       .  A
C1530      H1539   1.083       .  S
C1531      C1532   1.405       .  A
C1532      H1540   1.084       .  S
C1541      C1542   1.401       .  A
C1541      C1546   1.401       .  A
C1542      C1543   1.400       .  A
C1542      H1555   1.083       .  S
C1543      C1544   1.416       .  A
C1543      H1556   1.078       .  S
C1544      C1550   1.431       .  A
C1544      C1545   1.422       .  A
C1545      C1547   1.399       .  A
C1545      C1546   1.404       .  A
C1546      H1557   1.085       .  S
C1547      C1548   1.389       .  A
C1547      H1558   1.084       .  S
C1548      C1549   1.399       .  A
C1548      H1559   1.084       .  S
C1549      C1550   1.424       .  A
C1549      C1554   1.405       .  A
C1550      C1551   1.415       .  A
C1551      C1552   1.398       .  A
C1551      H1560   1.078       .  S
C1552      C1553   1.400       .  A
C1552      H1561   1.084       .  S
C1553      C1554   1.398       .  A
C1554      H1562   1.085       .  S
C1563      C1564   1.400       .  A
C1563      C1568   1.402       .  A
C1564      C1565   1.397       .  A
C1564      H1577   1.083       .  S
C1565      C1566   1.415   1_556  A
C1565      H1578   1.078       .  S
C1566      C1572   1.430       .  A
C1566      C1567   1.422   1_554  A
C1567      C1569   1.399   1_556  A
C1567      C1568   1.405       .  A
C1568      H1579   1.085       .  S
C1569      C1570   1.390       .  A
C1569      H1580   1.084   1_554  S
C1570      C1571   1.399       .  A
C1570      H1581   1.084       .  S
C1571      C1572   1.423       .  A
C1571      C1576   1.405       .  A
C1572      C1573   1.416       .  A
C1573      C1574   1.398       .  A
C1573      H1582   1.077       .  S
C1574      C1575   1.398       .  A
C1574      H1583   1.084       .  S
C1575      C1576   1.399       .  A
C1576      H1584   1.085       .  S
C1585      C1586   1.402       .  A
C1585      C1590   1.402       .  A
C1586      C1587   1.400       .  A
C1586      H1599   1.083       .  S
C1587      C1588   1.416       .  A
C1587      H1600   1.078       .  S
C1588      C1594   1.433       .  A
C1588      C1589   1.423       .  A
C1589      C1591   1.399       .  A
C1589      C1590   1.405       .  A
C1590      H1601   1.084       .  S
C1591      C1592   1.388       .  A
C1591      H1602   1.084       .  S
C1592      C1593   1.399       .  A
C1592      H1603   1.084       .  S
C1593      C1594   1.422       .  A
C1593      C1598   1.404       .  A
C1594      C1595   1.417       .  A
C1595      C1596   1.401       .  A
C1595      H1604   1.078       .  S
C1596      C1597   1.402       .  A
C1596      H1605   1.083       .  S
C1597      C1598   1.402       .  A
C1598      H1606   1.085       .  S
C1607      C1608   1.402       .  A
C1607      C1612   1.400       .  A
C1608      C1609   1.406       .  A
C1608      H1621   1.083       .  S
C1609      C1610   1.418       .  A
C1609      H1622   1.078       .  S
C1610      C1616   1.437   1_565  A
C1610      C1611   1.423       .  A
C1611      C1613   1.398       .  A
C1611      C1612   1.403       .  A
C1612      H1623   1.085       .  S
C1613      C1614   1.386   1_565  A
C1613      H1624   1.084       .  S
C1614      C1615   1.398       .  A
C1614      H1625   1.084       .  S
C1615      C1616   1.422       .  A
C1615      C1620   1.402       .  A
C1616      C1617   1.418       .  A
C1617      C1618   1.406       .  A
C1617      H1626   1.078       .  S
C1618      C1619   1.404       .  A
C1618      H1627   1.083       .  S
C1619      C1620   1.402       .  A
C1620      H1628   1.084       .  S
C1629      C1630   1.400       .  A
C1629      C1634   1.405       .  A
C1630      C1631   1.390       .  A
C1630      H1643   1.083       .  S
C1631      C1632   1.413       .  A
C1631      H1644   1.077       .  S
C1632      C1638   1.427       .  A
C1632      C1633   1.421       .  A
C1633      C1635   1.402       .  A
C1633      C1634   1.409       .  A
C1634      H1645   1.084       .  S
C1635      C1636   1.394       .  A
C1635      H1646   1.084       .  S
C1636      C1637   1.401       .  A
C1636      H1647   1.084       .  S
C1637      C1638   1.422       .  A
C1637      C1642   1.411       .  A
C1638      C1639   1.411       .  A
C1639      C1640   1.389       .  A
C1639      H1648   1.077       .  S
C1640      C1641   1.401       .  A
C1640      H1649   1.083       .  S
C1641      C1642   1.405       .  A
C1642      H1650   1.084       .  S
C1651      C1652   1.403       .  A
C1651      C1656   1.403       .  A
C1652      C1653   1.406       .  A
C1652      H1665   1.083       .  S
C1653      C1654   1.418       .  A
C1653      H1666   1.078       .  S
C1654      C1660   1.436   1_565  A
C1654      C1655   1.422       .  A
C1655      C1657   1.398       .  A
C1655      C1656   1.400       .  A
C1656      H1667   1.085       .  S
C1657      C1658   1.385   1_565  A
C1657      H1668   1.084       .  S
C1658      C1659   1.398       .  A
C1658      H1669   1.084       .  S
C1659      C1660   1.422       .  A
C1659      C1664   1.401       .  A
C1660      C1661   1.418       .  A
C1661      C1662   1.406       .  A
C1661      H1670   1.078       .  S
C1662      C1663   1.403       .  A
C1662      H1671   1.083       .  S
C1663      C1664   1.402       .  A
C1664      H1672   1.085       .  S
C1673      C1674   1.402       .  A
C1673      C1678   1.398       .  A
C1674      C1675   1.402       .  A
C1674      H1687   1.083       .  S
C1675      C1676   1.417       .  A
C1675      H1688   1.078       .  S
C1676      C1682   1.431   1_554  A
C1676      C1677   1.423       .  A
C1677      C1679   1.397       .  A
C1677      C1678   1.398       .  A
C1678      H1689   1.085       .  S
C1679      C1680   1.384   1_554  A
C1679      H1690   1.084       .  S
C1680      C1681   1.397       .  A
C1680      H1691   1.084       .  S
C1681      C1682   1.423       .  A
C1681      C1686   1.397       .  A
C1682      C1683   1.418       .  A
C1683      C1684   1.402       .  A
C1683      H1692   1.078       .  S
C1684      C1685   1.398       .  A
C1684      H1693   1.083       .  S
C1685      C1686   1.393       .  A
C1686      H1694   1.086       .  S
C1695      C1696   1.401       .  A
C1695      C1700   1.402       .  A
C1696      C1697   1.403       .  A
C1696      H1709   1.083       .  S
C1697      C1698   1.417       .  A
C1697      H1710   1.078       .  S
C1698      C1704   1.431       .  A
C1698      C1699   1.421       .  A
C1699      C1701   1.399       .  A
C1699      C1700   1.399       .  A
C1700      H1711   1.085       .  S
C1701      C1702   1.386       .  A
C1701      H1712   1.084       .  S
C1702      C1703   1.397       .  A
C1702      H1713   1.084       .  S
C1703      C1704   1.424       .  A
C1703      C1708   1.400       .  A
C1704      C1705   1.417       .  A
C1705      C1706   1.401       .  A
C1705      H1714   1.078       .  S
C1706      C1707   1.398       .  A
C1706      H1715   1.083       .  S
C1707      C1708   1.396       .  A
C1708      H1716   1.085       .  S
C1717      C1718   1.403       .  A
C1717      C1722   1.404       .  A
C1718      C1719   1.394       .  A
C1718      H1731   1.083       .  S
C1719      C1720   1.413       .  A
C1719      H1732   1.077       .  S
C1720      C1726   1.432       .  A
C1720      C1721   1.423       .  A
C1721      C1723   1.401       .  A
C1721      C1722   1.412       .  A
C1722      H1733   1.084       .  S
C1723      C1724   1.394       .  A
C1723      H1734   1.084       .  S
C1724      C1725   1.401       .  A
C1724      H1735   1.084       .  S
C1725      C1726   1.423       .  A
C1725      C1730   1.411       .  A
C1726      C1727   1.413       .  A
C1727      C1728   1.394       .  A
C1727      H1736   1.077       .  S
C1728      C1729   1.403       .  A
C1728      H1737   1.083       .  S
C1729      C1730   1.404       .  A
C1730      H1738   1.084       .  S
C1739      C1740   1.401       .  A
C1739      C1744   1.401       .  A
C1740      C1741   1.394       .  A
C1740      H1753   1.083       .  S
C1741      C1742   1.413       .  A
C1741      H1754   1.078       .  S
C1742      C1748   1.427       .  A
C1742      C1743   1.423       .  A
C1743      C1745   1.399       .  A
C1743      C1744   1.403       .  A
C1744      H1755   1.085       .  S
C1745      C1746   1.389       .  A
C1745      H1756   1.084       .  S
C1746      C1747   1.399       .  A
C1746      H1757   1.084       .  S
C1747      C1748   1.421       .  A
C1747      C1752   1.401       .  A
C1748      C1749   1.416       .  A
C1749      C1750   1.396       .  A
C1749      H1758   1.077       .  S
C1750      C1751   1.399       .  A
C1750      H1759   1.084       .  S
C1751      C1752   1.401       .  A
C1752      H1760   1.085       .  S
C1761      C1762   1.403       .  A
C1761      C1766   1.401       .  A
C1762      C1763   1.399       .  A
C1762      H1775   1.083       .  S
C1763      C1764   1.414       .  A
C1763      H1776   1.078       .  S
C1764      C1770   1.432       .  A
C1764      C1765   1.423       .  A
C1765      C1767   1.399       .  A
C1765      C1766   1.406       .  A
C1766      H1777   1.085       .  S
C1767      C1768   1.389       .  A
C1767      H1778   1.084       .  S
C1768      C1769   1.399       .  A
C1768      H1779   1.084       .  S
C1769      C1770   1.422       .  A
C1769      C1774   1.403       .  A
C1770      C1771   1.418       .  A
C1771      C1772   1.401       .  A
C1771      H1780   1.077       .  S
C1772      C1773   1.397       .  A
C1772      H1781   1.084       .  S
C1773      C1774   1.399       .  A
C1774      H1782   1.086       .  S
C1783      C1784   1.401       .  A
C1783      C1788   1.407       .  A
C1784      C1785   1.394       .  A
C1784      H1797   1.083       .  S
C1785      C1786   1.414       .  A
C1785      H1798   1.076       .  S
C1786      C1792   1.432       .  A
C1786      C1787   1.422       .  A
C1787      C1789   1.402       .  A
C1787      C1788   1.413       .  A
C1788      H1799   1.084       .  S
C1789      C1790   1.395       .  A
C1789      H1800   1.084       .  S
C1790      C1791   1.401       .  A
C1790      H1801   1.084       .  S
C1791      C1792   1.423       .  A
C1791      C1796   1.414       .  A
C1792      C1793   1.412       .  A
C1793      C1794   1.392       .  A
C1793      H1802   1.076       .  S
C1794      C1795   1.403       .  A
C1794      H1803   1.083       .  S
C1795      C1796   1.406       .  A
C1796      H1804   1.084       .  S
C1805      C1806   1.402       .  A
C1805      C1810   1.403       .  A
C1806      C1807   1.396       .  A
C1806      H1819   1.083       .  S
C1807      C1808   1.413       .  A
C1807      H1820   1.077       .  S
C1808      C1814   1.431       .  A
C1808      C1809   1.424       .  A
C1809      C1811   1.400       .  A
C1809      C1810   1.408       .  A
C1810      H1821   1.084       .  S
C1811      C1812   1.390       .  A
C1811      H1822   1.084       .  S
C1812      C1813   1.400       .  A
C1812      H1823   1.083       .  S
C1813      C1814   1.422       .  A
C1813      C1818   1.404       .  A
C1814      C1815   1.419       .  A
C1815      C1816   1.400       .  A
C1815      H1824   1.077       .  S
C1816      C1817   1.396       .  A
C1816      H1825   1.084       .  S
C1817      C1818   1.399       .  A
C1818      H1826   1.085       .  S
C1827      C1828   1.402       .  A
C1827      C1832   1.402       .  A
C1828      C1829   1.398       .  A
C1828      H1841   1.083       .  S
C1829      C1830   1.414       .  A
C1829      H1842   1.078       .  S
C1830      C1836   1.432       .  A
C1830      C1831   1.423       .  A
C1831      C1833   1.399       .  A
C1831      C1832   1.407       .  A
C1832      H1843   1.085       .  S
C1833      C1834   1.390       .  A
C1833      H1844   1.084       .  S
C1834      C1835   1.400       .  A
C1834      H1845   1.084       .  S
C1835      C1836   1.422       .  A
C1835      C1840   1.404       .  A
C1836      C1837   1.418       .  A
C1837      C1838   1.401       .  A
C1837      H1846   1.078       .  S
C1838      C1839   1.398       .  A
C1838      H1847   1.083       .  S
C1839      C1840   1.402       .  A
C1840      H1848   1.085       .  S
C1849      C1850   1.399       .  A
C1849      C1854   1.402       .  A
C1850      C1851   1.396       .  A
C1850      H1863   1.084       .  S
C1851      C1852   1.415       .  A
C1851      H1864   1.078       .  S
C1852      C1858   1.429       .  A
C1852      C1853   1.421       .  A
C1853      C1855   1.400       .  A
C1853      C1854   1.406       .  A
C1854      H1865   1.085       .  S
C1855      C1856   1.392       .  A
C1855      H1866   1.084       .  S
C1856      C1857   1.400       .  A
C1856      H1867   1.084       .  S
C1857      C1858   1.423       .  A
C1857      C1862   1.407       .  A
C1858      C1859   1.414       .  A
C1859      C1860   1.395       .  A
C1859      H1868   1.077       .  S
C1860      C1861   1.399       .  A
C1860      H1869   1.084       .  S
C1861      C1862   1.401       .  A
C1862      H1870   1.085       .  S
C1871      C1872   1.401       .  A
C1871      C1876   1.400       .  A
C1872      C1873   1.398       .  A
C1872      H1885   1.084       .  S
C1873      C1874   1.415       .  A
C1873      H1886   1.078       .  S
C1874      C1880   1.431       .  A
C1874      C1875   1.424       .  A
C1875      C1877   1.399       .  A
C1875      C1876   1.406       .  A
C1876      H1887   1.085       .  S
C1877      C1878   1.390       .  A
C1877      H1888   1.084       .  S
C1878      C1879   1.399       .  A
C1878      H1889   1.084       .  S
C1879      C1880   1.422       .  A
C1879      C1884   1.405       .  A
C1880      C1881   1.416       .  A
C1881      C1882   1.400       .  A
C1881      H1890   1.078       .  S
C1882      C1883   1.400       .  A
C1882      H1891   1.084       .  S
C1883      C1884   1.400       .  A
C1884      H1892   1.085       .  S
C1893      C1894   1.401       .  A
C1893      C1898   1.406       .  A
C1894      C1895   1.394       .  A
C1894      H1907   1.083       .  S
C1895      C1896   1.414       .  A
C1895      H1908   1.076       .  S
C1896      C1902   1.432       .  A
C1896      C1897   1.422       .  A
C1897      C1899   1.402       .  A
C1897      C1898   1.412       .  A
C1898      H1909   1.084       .  S
C1899      C1900   1.395       .  A
C1899      H1910   1.084       .  S
C1900      C1901   1.402       .  A
C1900      H1911   1.084       .  S
C1901      C1902   1.423       .  A
C1901      C1906   1.415       .  A
C1902      C1903   1.412       .  A
C1903      C1904   1.392       .  A
C1903      H1912   1.076       .  S
C1904      C1905   1.403       .  A
C1904      H1913   1.083       .  S
C1905      C1906   1.406       .  A
C1906      H1914   1.084       .  S
C1915      C1916   1.401       .  A
C1915      C1920   1.406   1_554  A
C1916      C1917   1.389       .  A
C1916      H1929   1.084       .  S
C1917      C1918   1.412       .  A
C1917      H1930   1.077       .  S
C1918      C1924   1.427   1_565  A
C1918      C1919   1.421       .  A
C1919      C1921   1.402   1_554  A
C1919      C1920   1.413   1_554  A
C1920      H1931   1.084       .  S
C1921      C1922   1.397   1_565  A
C1921      H1932   1.084       .  S
C1922      C1923   1.402   1_556  A
C1922      H1933   1.084       .  S
C1923      C1924   1.423       .  A
C1923      C1928   1.415       .  A
C1924      C1925   1.411       .  A
C1925      C1926   1.387       .  A
C1925      H1934   1.076       .  S
C1926      C1927   1.400       .  A
C1926      H1935   1.084       .  S
C1927      C1928   1.405       .  A
C1928      H1936   1.084   1_554  S
C1937      C1938   1.397       .  A
C1937      C1942   1.400       .  A
C1938      C1939   1.397       .  A
C1938      H1951   1.084       .  S
C1939      C1940   1.418       .  A
C1939      H1952   1.077       .  S
C1940      C1946   1.426       .  A
C1940      C1941   1.421       .  A
C1941      C1943   1.399       .  A
C1941      C1942   1.398       .  A
C1942      H1953   1.085       .  S
C1943      C1944   1.388       .  A
C1943      H1954   1.084       .  S
C1944      C1945   1.398       .  A
C1944      H1955   1.084       .  S
C1945      C1946   1.424       .  A
C1945      C1950   1.403       .  A
C1946      C1947   1.412       .  A
C1947      C1948   1.392       .  A
C1947      H1956   1.077       .  S
C1948      C1949   1.402       .  A
C1948      H1957   1.083       .  S
C1949      C1950   1.399       .  A
C1950      H1958   1.085       .  S
C1959      C1960   1.399       .  A
C1959      C1964   1.402       .  A
C1960      C1961   1.401       .  A
C1960      H1973   1.083       .  S
C1961      C1962   1.418       .  A
C1961      H1974   1.078       .  S
C1962      C1968   1.431       .  A
C1962      C1963   1.421       .  A
C1963      C1965   1.400       .  A
C1963      C1964   1.403       .  A
C1964      H1975   1.085       .  S
C1965      C1966   1.390       .  A
C1965      H1976   1.084       .  S
C1966      C1967   1.399       .  A
C1966      H1977   1.084       .  S
C1967      C1968   1.423       .  A
C1967      C1972   1.407       .  A
C1968      C1969   1.413       .  A
C1969      C1970   1.398       .  A
C1969      H1978   1.078       .  S
C1970      C1971   1.403       .  A
C1970      H1979   1.083       .  S
C1971      C1972   1.401       .  A
C1972      H1980   1.085       .  S
C1981      C1982   1.404       .  A
C1981      C1986   1.402       .  A
C1982      C1983   1.403       .  A
C1982      H1995   1.083       .  S
C1983      C1984   1.416       .  A
C1983      H1996   1.078       .  S
C1984      C1990   1.436       .  A
C1984      C1985   1.424       .  A
C1985      C1987   1.398       .  A
C1985      C1986   1.406       .  A
C1986      H1997   1.084       .  S
C1987      C1988   1.387       .  A
C1987      H1998   1.084       .  S
C1988      C1989   1.399       .  A
C1988      H1999   1.084       .  S
C1989      C1990   1.422       .  A
C1989      C1994   1.403       .  A
C1990      C1991   1.418       .  A
C1991      C1992   1.405       .  A
C1991      H2000   1.078       .  S
C1992      C1993   1.403       .  A
C1992      H2001   1.083       .  S
C1993      C1994   1.404       .  A
C1994      H2002   1.084       .  S
C2003      C2004   1.402       .  A
C2003      C2008   1.409       .  A
C2004      C2005   1.391       .  A
C2004      H2017   1.083       .  S
C2005      C2006   1.412       .  A
C2005      H2018   1.075       .  S
C2006      C2012   1.431   1_565  A
C2006      C2007   1.422       .  A
C2007      C2009   1.403       .  A
C2007      C2008   1.417       .  A
C2008      H2019   1.084       .  S
C2009      C2010   1.399   1_565  A
C2009      H2020   1.084       .  S
C2010      C2011   1.403       .  A
C2010      H2021   1.084       .  S
C2011      C2012   1.423       .  A
C2011      C2016   1.419       .  A
C2012      C2013   1.411       .  A
C2013      C2014   1.389       .  A
C2013      H2022   1.075       .  S
C2014      C2015   1.403       .  A
C2014      H2023   1.083       .  S
C2015      C2016   1.408       .  A
C2016      H2024   1.084       .  S
C2025      C2026   1.399       .  A
C2025      C2030   1.402       .  A
C2026      C2027   1.396       .  A
C2026      H2039   1.084       .  S
C2027      C2028   1.416       .  A
C2027      H2040   1.077       .  S
C2028      C2034   1.427       .  A
C2028      C2029   1.421       .  A
C2029      C2031   1.400       .  A
C2029      C2030   1.403       .  A
C2030      H2041   1.085       .  S
C2031      C2032   1.390       .  A
C2031      H2042   1.084       .  S
C2032      C2033   1.400       .  A
C2032      H2043   1.084       .  S
C2033      C2034   1.423       .  A
C2033      C2038   1.406       .  A
C2034      C2035   1.413       .  A
C2035      C2036   1.393       .  A
C2035      H2044   1.078       .  S
C2036      C2037   1.402       .  A
C2036      H2045   1.083       .  S
C2037      C2038   1.402       .  A
C2038      H2046   1.085       .  S
C2047      C2048   1.399       .  A
C2047      C2052   1.401       .  A
C2048      C2049   1.394       .  A
C2048      H2061   1.084       .  S
C2049      C2050   1.414       .  A
C2049      H2062   1.077       .  S
C2050      C2056   1.428       .  A
C2050      C2051   1.423       .  A
C2051      C2053   1.400       .  A
C2051      C2052   1.407       .  A
C2052      H2063   1.085       .  S
C2053      C2054   1.392       .  A
C2053      H2064   1.084       .  S
C2054      C2055   1.400       .  A
C2054      H2065   1.084       .  S
C2055      C2056   1.422       .  A
C2055      C2060   1.405       .  A
C2056      C2057   1.415       .  A
C2057      C2058   1.395       .  A
C2057      H2066   1.077       .  S
C2058      C2059   1.398       .  A
C2058      H2067   1.084       .  S
C2059      C2060   1.402       .  A
C2060      H2068   1.085       .  S
C2069      C2070   1.399       .  A
C2069      C2074   1.400       .  A
C2070      C2071   1.398       .  A
C2070      H2083   1.084       .  S
C2071      C2072   1.416       .  A
C2071      H2084   1.078       .  S
C2072      C2078   1.430       .  A
C2072      C2073   1.422       .  A
C2073      C2075   1.399       .  A
C2073      C2074   1.404       .  A
C2074      H2085   1.085       .  S
C2075      C2076   1.390       .  A
C2075      H2086   1.084       .  S
C2076      C2077   1.399       .  A
C2076      H2087   1.084       .  S
C2077      C2078   1.423       .  A
C2077      C2082   1.406       .  A
C2078      C2079   1.415       .  A
C2079      C2080   1.397       .  A
C2079      H2088   1.078       .  S
C2080      C2081   1.400       .  A
C2080      H2089   1.084       .  S
C2081      C2082   1.400       .  A
C2082      H2090   1.085       .  S
C2091      C2092   1.398       .  A
C2091      C2096   1.402       .  A
C2092      C2093   1.401       .  A
C2092      H2105   1.083       .  S
C2093      C2094   1.418       .  A
C2093      H2106   1.078       .  S
C2094      C2100   1.430       .  A
C2094      C2095   1.421       .  A
C2095      C2097   1.401       .  A
C2095      C2096   1.402       .  A
C2096      H2107   1.085       .  S
C2097      C2098   1.390       .  A
C2097      H2108   1.084       .  S
C2098      C2099   1.399       .  A
C2098      H2109   1.084       .  S
C2099      C2100   1.423       .  A
C2099      C2104   1.406       .  A
C2100      C2101   1.412       .  A
C2101      C2102   1.396       .  A
C2101      H2110   1.078       .  S
C2102      C2103   1.403       .  A
C2102      H2111   1.083       .  S
C2103      C2104   1.401       .  A
C2104      H2112   1.085       .  S
