geometry optimzed in LAMMPS
_audit_creation_date              2020-12-01 
_audit_creation_method            'lammps2cif' 
_symmetry_space_group_name_H-M    'P1' 
_symmetry_Int_Tables_number       1 
_symmetry_cell_setting            triclinic 
loop_ 
_symmetry_equiv_pos_as_xyz 
  x,y,z 
_cell_length_a                    28.33737966 
_cell_length_b                    28.108211168522143 
_cell_length_c                    88.55204904906188 
_cell_angle_alpha                 89.9729655677564 
_cell_angle_beta                  89.94269244732189 
_cell_angle_gamma                 89.78998270203107 
loop_ 
_atom_site_label 
_atom_site_type_symbol 
_atom_site_fract_x 
_atom_site_fract_y 
_atom_site_fract_z 
_atom_site_charge 
O1          O  0.75632359  0.22628307  0.73245614    -0.82600
C2          C  0.90118787  0.13071319  0.70224785     0.96800
O3          O  0.85763629  0.12457045  0.69952204    -0.71700
O4          O  0.80747453  0.10427781  0.72331172    -0.75300
Al5        Al  0.80164867  0.15198162  0.70834280     1.49000
C6          C  0.79945744  0.10702031  0.73725321     0.92000
O7          O  0.87935763  0.19446139  0.74534105    -0.81500
O8          O  0.84985882  0.28663432  0.71211749    -0.75100
Al9        Al  0.81802416  0.20939584  0.73779043     1.90100
O10         O  0.91599956  0.23743215  0.72841782    -0.74200
O11         O  0.86010157  0.22345602  0.68996339    -0.74000
O12         O  0.91586474  0.16911431  0.70801391    -0.79700
O13         O  0.79005307  0.19253296  0.69148826    -0.77900
O14         O  0.83338369  0.19560281  0.71879292    -1.14000
O15         O  0.74054794  0.17138938  0.71553196    -0.73200
C16         C  0.72735776  0.20476379  0.72416469     0.97500
C17         C  0.91460048  0.21864689  0.74134480     0.93900
Al18       Al  0.88140509  0.22642076  0.71027247     1.55600
O19         O  0.79917296  0.14689592  0.74371688    -0.77800
C20         C  0.82102567  0.21404470  0.68399178     0.98100
C21         C  0.83773122  0.30289350  0.72488698     0.93000
O22         O  0.83231282  0.27556783  0.73611392    -0.83100
O23         O  0.27261986  0.76234680  0.73165155    -0.82600
C24         C  0.12661809  0.85516384  0.70132676     0.96800
O25         O  0.17009517  0.86213547  0.69869401    -0.71700
O26         O  0.22049624  0.88413371  0.72221132    -0.75300
Al27       Al  0.22647930  0.83572662  0.70735501     1.49000
C28         C  0.22860405  0.88171803  0.73614926     0.92000
O29         O  0.14997919  0.79555205  0.74457117    -0.81500
O30         O  0.18031867  0.70024886  0.71226350    -0.75100
Al31       Al  0.21114868  0.77967247  0.73711571     1.90100
O32         O  0.11334693  0.75048346  0.72819350    -0.74200
O33         O  0.16903241  0.76134754  0.68965304    -0.74000
O34         O  0.11244325  0.81653165  0.70709377    -0.79700
O35         O  0.23791958  0.79505798  0.69046915    -0.77900
O36         O  0.19544548  0.79211991  0.71807017    -1.14000
O37         O  0.28790307  0.81668870  0.71442026    -0.73200
C38         C  0.30125110  0.78337507  0.72307780     0.97500
C39         C  0.11448451  0.77148538  0.74077311     0.93900
Al40       Al  0.14780906  0.75992488  0.70990144     1.55600
O41         O  0.23016710  0.84196689  0.74260761    -0.77800
C42         C  0.20724422  0.77199116  0.68333422     0.98100
C43         C  0.19268394  0.68530802  0.72516662     0.93000
O44         O  0.19678562  0.71365871  0.73615363    -0.83100
O45         O  0.25627135  0.26364027  0.77539031    -0.82600
C46         C  0.40098204  0.35611467  0.80666290     0.96800
O47         O  0.35738393  0.36510911  0.80833316    -0.71700
O48         O  0.31403301  0.38552700  0.78334900    -0.75300
Al49       Al  0.30190807  0.34020024  0.79865399     1.49000
C50         C  0.30490908  0.38153818  0.76952906     0.92000
O51         O  0.38057144  0.29262606  0.76348332    -0.81500
O52         O  0.34421375  0.20114933  0.79620092    -0.75100
Al53       Al  0.31852314  0.27902294  0.77026575     1.90100
O54         O  0.41491795  0.24904195  0.78093958    -0.74200
O55         O  0.35176804  0.26482543  0.81870699    -0.74000
O56         O  0.41453982  0.31614640  0.80167818    -0.79700
O57         O  0.28509085  0.30232828  0.81542059    -0.77900
O58         O  0.33253119  0.29349715  0.78928013    -1.14000
O59         O  0.24077547  0.32372333  0.79055519    -0.73200
C60         C  0.22722035  0.28835609  0.78281755     0.97500
C61         C  0.41544575  0.26858599  0.76805892     0.93900
Al62       Al  0.37761124  0.26053838  0.79869673     1.55600
O63         O  0.30053169  0.34101557  0.76373288    -0.77800
C64         C  0.31236337  0.27860088  0.82370622     0.98100
C65         C  0.33433118  0.18540887  0.78316948     0.93000
O66         O  0.33209652  0.21314590  0.77199466    -0.83100
O67         O  0.76900974  0.72791096  0.77400736    -0.82600
C68         C  0.63051312  0.62873098  0.80605985     0.96800
O69         O  0.67454085  0.62226896  0.80793118    -0.71700
O70         O  0.71897798  0.60379839  0.78291399    -0.75300
Al71       Al  0.72864917  0.65027589  0.79796836     1.49000
C72         C  0.72689356  0.60766721  0.76900652     0.92000
O73         O  0.64552406  0.69325869  0.76301417    -0.81500
O74         O  0.67964222  0.78571672  0.79574617    -0.75100
Al75       Al  0.70728149  0.70968501  0.76942480     1.90100
O76         O  0.61056930  0.73575380  0.78056390    -0.74200
O77         O  0.67449183  0.72126671  0.81812246    -0.74000
O78         O  0.61493793  0.66778798  0.80094014    -0.79700
O79         O  0.74405956  0.69004667  0.81448749    -0.77900
O80         O  0.69508959  0.69470261  0.78854312    -1.14000
O81         O  0.78824025  0.67001695  0.78957116    -0.73200
C82         C  0.79960008  0.70533289  0.78144896     0.97500
C83         C  0.61015373  0.71635229  0.76767669     0.93900
Al84       Al  0.64872954  0.72512526  0.79813531     1.55600
O85         O  0.72762989  0.64811057  0.76291639    -0.77800
C86         C  0.71510415  0.71105139  0.82290643     0.98100
C87         C  0.68882738  0.80242141  0.78276851     0.93000
O88         O  0.69103653  0.77542611  0.77137353    -0.83100
O89         O  0.77262090  0.22254465  0.02533463    -0.82600
C90         C  0.62332231  0.12794864  0.05388932     0.96800
O91         O  0.66662218  0.12011335  0.05667361    -0.71700
O92         O  0.71575127  0.10030040  0.03259000    -0.75300
Al93       Al  0.72363585  0.14607725  0.04802164     1.49000
C94         C  0.72628330  0.10419200  0.01884515     0.92000
O95         O  0.65054315  0.19386232  0.01105547    -0.81500
O96         O  0.67829903  0.28322250  0.04498865    -0.75100
Al97       Al  0.71121621  0.20721125  0.01919481     1.90100
O98         O  0.61251455  0.23558999  0.02811390    -0.74200
O99         O  0.66766437  0.21966801  0.06669489    -0.74000
O100        O  0.61012244  0.16729841  0.04837721    -0.79700
O101        O  0.73640486  0.18496405  0.06514887    -0.77900
O102        O  0.69387973  0.19204670  0.03790657    -1.14000
O103        O  0.78581898  0.16301753  0.04093276    -0.73200
C104        C  0.80061497  0.19741388  0.03299835     0.97500
C105        C  0.61482324  0.21754234  0.01508192     0.93900
Al106      Al  0.64612933  0.22361094  0.04640997     1.55600
O107        O  0.73004978  0.14476522  0.01292782    -0.77800
C108        C  0.70672590  0.20889326  0.07253764     0.98100
C109        C  0.69084595  0.30019859  0.03239871     0.93000
O110        O  0.69720851  0.27352085  0.02108482    -0.83100
O111        O  0.24551506  0.75730394  0.02422857    -0.82600
C112        C  0.39018157  0.85729749  0.05296006     0.96800
O113        O  0.34660577  0.86376178  0.05572110    -0.71700
O114        O  0.29591317  0.88139355  0.03186001    -0.75300
Al115      Al  0.29054988  0.83498661  0.04732621     1.49000
C116        C  0.28704920  0.87687909  0.01803218     0.92000
O117        O  0.36727791  0.79062941  0.01030763    -0.81500
O118        O  0.34011209  0.69981349  0.04414086    -0.75100
Al119      Al  0.30643696  0.77499329  0.01830967     1.90100
O120        O  0.40526397  0.74952887  0.02746438    -0.74200
O121        O  0.34987190  0.76404076  0.06582461    -0.74000
O122        O  0.40481919  0.81821691  0.04756789    -0.79700
O123        O  0.27987211  0.79578642  0.06464706    -0.77900
O124        O  0.32238599  0.79052117  0.03711779    -1.14000
O125        O  0.22926004  0.81427564  0.04048373    -0.73200
C126        C  0.21640305  0.77944988  0.03238838     0.97500
C127        C  0.40349409  0.76787376  0.01447529     0.93900
Al128      Al  0.37093444  0.76054101  0.04561577     1.55600
O129        O  0.28544726  0.83628143  0.01211878    -0.77800
C130        C  0.31107953  0.77377102  0.07196597     0.98100
C131        C  0.32780514  0.68271278  0.03151957     0.93000
O132        O  0.32254932  0.70933019  0.02013767    -0.83100
O133        O  0.74684492  0.72376461  0.98030261    -0.82600
C134        C  0.89112398  0.62468287  0.95011333     0.96800
O135        O  0.84736469  0.61741053  0.94805603    -0.71700
O136        O  0.80105894  0.59966833  0.97282474    -0.75300
Al137      Al  0.79179541  0.64511216  0.95739502     1.49000
C138        C  0.79158452  0.60426987  0.98661826     0.92000
O139        O  0.87008475  0.69126222  0.99309647    -0.81500
O140        O  0.83829139  0.78138097  0.95946751    -0.75100
Al141      Al  0.80865180  0.70651599  0.98579310     1.90100
O142        O  0.90645774  0.73234965  0.97554525    -0.74200
O143        O  0.84631028  0.71647239  0.93746684    -0.74000
O144        O  0.90538973  0.66399111  0.95531673    -0.79700
O145        O  0.77723260  0.68395108  0.94053361    -0.77900
O146        O  0.82342375  0.69053720  0.96691725    -1.14000
O147        O  0.73085076  0.66408614  0.96510739    -0.73200
C148        C  0.71763559  0.69980849  0.97277857     0.97500
C149        C  0.90593796  0.71360537  0.98853385     0.93900
Al150      Al  0.87022348  0.72100721  0.95765515     1.55600
O151        O  0.78893008  0.64505249  0.99241456    -0.77800
C152        C  0.80627530  0.70575165  0.93238469     0.98100
C153        C  0.82727195  0.79861146  0.97221501     0.93000
O154        O  0.82388341  0.77223556  0.98370798    -0.83100
O155        O  0.27212336  0.26053983  0.98130241    -0.82600
C156        C  0.12743448  0.35618007  0.95040880     0.96800
O157        O  0.17106660  0.36524820  0.94895712    -0.71700
O158        O  0.21215290  0.38208779  0.97459897    -0.75300
Al159      Al  0.22631135  0.33938866  0.95884866     1.49000
C160        C  0.22060542  0.37666547  0.98841746     0.92000
O161        O  0.14659465  0.28380522  0.99293426    -0.81500
O162        O  0.18515077  0.20130909  0.95841956    -0.75100
Al163      Al  0.20927618  0.27340291  0.98616771     1.90100
O164        O  0.11351220  0.24443818  0.97439591    -0.74200
O165        O  0.17849286  0.26805985  0.93733483    -0.74000
O166        O  0.11405636  0.31589933  0.95508182    -0.79700
O167        O  0.24519937  0.30364716  0.94186713    -0.77900
O168        O  0.19578712  0.29118800  0.96735824    -1.14000
O169        O  0.28727263  0.32285271  0.96717604    -0.73200
C170        C  0.30111998  0.28663860  0.97448720     0.97500
C171        C  0.11221218  0.26071579  0.98770676     0.93900
Al172      Al  0.15140721  0.26008013  0.95710699     1.55600
O173        O  0.22466296  0.33540820  0.99386862    -0.77800
C174        C  0.21892339  0.28103278  0.93303424     0.98100
C175        C  0.19783220  0.18292554  0.97079829     0.93000
O176        O  0.19873995  0.20707745  0.98282498    -0.83100
O177        O  0.75131044  0.26244151  0.52464550    -0.82600
C178        C  0.89535785  0.35940943  0.55467256     0.96800
O179        O  0.85179453  0.36602966  0.55714703    -0.71700
O180        O  0.80370857  0.38596674  0.53308102    -0.75300
Al181      Al  0.79657913  0.33886590  0.54819031     1.49000
C182        C  0.79374360  0.38264547  0.51929570     0.92000
O183        O  0.87297667  0.29738181  0.51121798    -0.81500
O184        O  0.84572521  0.20262529  0.54371786    -0.75100
Al185      Al  0.81248783  0.28074017  0.51885975     1.90100
O186        O  0.91207710  0.25630713  0.52823191    -0.74200
O187        O  0.85291095  0.26381578  0.56631076    -0.74000
O188        O  0.91022262  0.32036773  0.54938776    -0.79700
O189        O  0.78440205  0.29905906  0.56522522    -0.77900
O190        O  0.82823391  0.29455126  0.53784997    -1.14000
O191        O  0.73576191  0.32013834  0.54077186    -0.73200
C192        C  0.72239544  0.28597255  0.53252045     0.97500
C193        C  0.91062674  0.27793738  0.51573639     0.93900
Al194      Al  0.87616724  0.26331010  0.54629371     1.55600
O195        O  0.79130380  0.34246272  0.51313892    -0.77800
C196        C  0.81446949  0.27512601  0.57244552     0.98100
C197        C  0.83371551  0.18729999  0.53085320     0.93000
O198        O  0.82918124  0.21546643  0.51986466    -0.83100
O199        O  0.76888785  0.76529942  0.48063170    -0.82600
C200        C  0.62338440  0.85932926  0.44979341     0.96800
O201        O  0.66697330  0.86777618  0.44790863    -0.71700
O202        O  0.71109902  0.88810725  0.47285990    -0.75300
Al203      Al  0.72270170  0.84233147  0.45758005     1.49000
C204        C  0.72060284  0.88407843  0.48667146     0.92000
O205        O  0.64485672  0.79546055  0.49325254    -0.81500
O206        O  0.67929159  0.70415109  0.46023507    -0.75100
Al207      Al  0.70681190  0.78148315  0.48608882     1.90100
O208        O  0.60982184  0.75304716  0.47573386    -0.74200
O209        O  0.67157044  0.76792289  0.43776288    -0.74000
O210        O  0.60991405  0.81983020  0.45505103    -0.79700
O211        O  0.73919293  0.80342220  0.44095709    -0.77900
O212        O  0.69206118  0.79621137  0.46713756    -1.14000
O213        O  0.78397056  0.82544026  0.46550985    -0.73200
C214        C  0.79767934  0.78952420  0.47300330     0.97500
C215        C  0.60969972  0.77196308  0.48870128     0.93900
Al216      Al  0.64644969  0.76395791  0.45787960     1.55600
O217        O  0.72517445  0.84349275  0.49248175    -0.77800
C218        C  0.71146186  0.78002876  0.43281875     0.98100
C219        C  0.68934371  0.68815789  0.47322446     0.93000
O220        O  0.69292994  0.71581613  0.48437227    -0.83100
O221        O  0.25417513  0.23133777  0.48138015    -0.82600
C222        C  0.39177787  0.13121832  0.44919912     0.96800
O223        O  0.34776980  0.12380678  0.44791957    -0.71700
O224        O  0.30341820  0.10732738  0.47289512    -0.75300
Al225      Al  0.29367633  0.15269492  0.45759238     1.49000
C226        C  0.29652775  0.11153446  0.48682123     0.92000
O227        O  0.37831984  0.19761449  0.49202905    -0.81500
O228        O  0.34134941  0.28882586  0.45918311    -0.75100
Al229      Al  0.31600169  0.21331892  0.48581911     1.90100
O230        O  0.41178374  0.23888452  0.47394395    -0.74200
O231        O  0.34569279  0.22459434  0.43687086    -0.74000
O232        O  0.40701776  0.17106009  0.45367019    -0.79700
O233        O  0.27808163  0.19031004  0.44069760    -0.77900
O234        O  0.32729257  0.19771493  0.46664396    -1.14000
O235        O  0.23390848  0.17391648  0.46581824    -0.73200
C236        C  0.22330724  0.20985411  0.47381034     0.97500
C237        C  0.41325453  0.22043782  0.48697156     0.93900
Al238      Al  0.37266766  0.22825914  0.45666851     1.55600
O239        O  0.29633831  0.15209011  0.49279980    -0.77800
C240        C  0.30566401  0.21238370  0.43214636     0.98100
C241        C  0.33278321  0.30561260  0.47218750     0.93000
O242        O  0.33156105  0.27873531  0.48360695    -0.83100
O243        O  0.26957797  0.72907318  0.52366105    -0.82600
C244        C  0.12158950  0.63426274  0.55241858     0.96800
O245        O  0.16486487  0.62717203  0.55542511    -0.71700
O246        O  0.21521269  0.60696229  0.53170091    -0.75300
Al247      Al  0.22168874  0.65366446  0.54691531     1.49000
C248        C  0.22445736  0.61026179  0.51785502     0.92000
O249        O  0.14738740  0.69845903  0.50968006    -0.81500
O250        O  0.17530114  0.78968287  0.54327327    -0.75100
Al251      Al  0.20820455  0.71286650  0.51769038     1.90100
O252        O  0.10960385  0.74147584  0.52642485    -0.74200
O253        O  0.16359288  0.72602012  0.56520047    -0.74000
O254        O  0.10785451  0.67317695  0.54670450    -0.79700
O255        O  0.23316245  0.69319809  0.56398161    -0.77900
O256        O  0.19130933  0.69853459  0.53649896    -1.14000
O257        O  0.28362991  0.67189810  0.54005031    -0.73200
C258        C  0.29776697  0.70609880  0.53191371     0.97500
C259        C  0.11150049  0.72210369  0.51358108     0.93900
Al260      Al  0.14313659  0.72988900  0.54479033     1.55600
O261        O  0.22731888  0.65050511  0.51170251    -0.77800
C262        C  0.20212893  0.71522727  0.57137323     0.98100
C263        C  0.18809298  0.80616002  0.53061132     0.93000
O264        O  0.19380438  0.77907731  0.51934954    -0.83100
O265        O  0.75247137  0.77016739  0.27659708    -0.82600
C266        C  0.89786889  0.86604183  0.30648518     0.96800
O267        O  0.85434475  0.87316168  0.30914209    -0.71700
O268        O  0.80736219  0.89269108  0.28468370    -0.75300
Al269      Al  0.79848201  0.84653485  0.29985186     1.49000
C270        C  0.79780662  0.88890195  0.27088430     0.92000
O271        O  0.87659125  0.79953891  0.26378677    -0.81500
O272        O  0.84465273  0.70932707  0.29728442    -0.75100
Al273      Al  0.81476067  0.78602636  0.27116409     1.90100
O274        O  0.91236530  0.75767027  0.28129915    -0.74200
O275        O  0.85289415  0.77408175  0.31951875    -0.74000
O276        O  0.91192080  0.82640525  0.30137904    -0.79700
O277        O  0.78379943  0.80693788  0.31645604    -0.77900
O278        O  0.82974607  0.80100150  0.29007067    -1.14000
O279        O  0.73751658  0.82917094  0.29220478    -0.73200
C280        C  0.72372498  0.79448172  0.28427259     0.97500
C281        C  0.91186371  0.77581923  0.26824815     0.93900
Al282      Al  0.87653978  0.76961895  0.29920095     1.55600
O283        O  0.79620139  0.84850134  0.26475541    -0.77800
C284        C  0.81256148  0.78446144  0.32453815     0.98100
C285        C  0.83380283  0.69279819  0.28442297     0.93000
O286        O  0.82882686  0.72000928  0.27317097    -0.83100
O287        O  0.25301436  0.73389592  0.23214383    -0.82600
C288        C  0.40010218  0.64059457  0.20186893     0.96800
O289        O  0.35661124  0.63258075  0.19963877    -0.71700
O290        O  0.30958797  0.61268282  0.22402256    -0.75300
Al291      Al  0.30029202  0.65847317  0.20868083     1.49000
C292        C  0.30156756  0.61642244  0.23793198     0.92000
O293        O  0.37743159  0.70681429  0.24492632    -0.81500
O294        O  0.34390378  0.79588573  0.21134410    -0.75100
Al295      Al  0.31546750  0.71928628  0.23748726     1.90100
O296        O  0.41257157  0.74856833  0.22737118    -0.74200
O297        O  0.35398963  0.73183721  0.18952307    -0.74000
O298        O  0.41365037  0.68003955  0.20718481    -0.79700
O299        O  0.28590569  0.69678675  0.19152679    -0.77900
O300        O  0.33071462  0.70441364  0.21854025    -1.14000
O301        O  0.23873638  0.67579615  0.21617082    -0.73200
C302        C  0.22455287  0.70992090  0.22435370     0.97500
C303        C  0.41253069  0.73036298  0.24039938     0.93900
Al304      Al  0.37709427  0.73632247  0.20953875     1.55600
O305        O  0.29874912  0.65684325  0.24396603    -0.77800
C306        C  0.31530572  0.71969186  0.18379095     0.98100
C307        C  0.33179791  0.81248363  0.22406944     0.93000
O308        O  0.32781342  0.78552018  0.23541917    -0.83100
O309        O  0.27528372  0.23796594  0.27472272    -0.82600
C310        C  0.13064270  0.13849316  0.30402653     0.96800
O311        O  0.17437845  0.13012649  0.30575781    -0.71700
O312        O  0.21831988  0.11439054  0.28055423    -0.75300
Al313      Al  0.22993373  0.15723287  0.29648821     1.49000
C314        C  0.22769748  0.12026351  0.26681532     0.92000
O315        O  0.15219175  0.20981271  0.26171796    -0.81500
O316        O  0.18570357  0.29502713  0.29626664    -0.75100
Al317      Al  0.21365815  0.22274071  0.26904858     1.90100
O318        O  0.11623041  0.24927761  0.27980269    -0.74200
O319        O  0.17822336  0.22814954  0.31749518    -0.74000
O320        O  0.11667093  0.17875061  0.29940976    -0.79700
O321        O  0.24601831  0.19315481  0.31373832    -0.77900
O322        O  0.19892915  0.20479007  0.28772679    -1.14000
O323        O  0.29140981  0.17538485  0.28873503    -0.73200
C324        C  0.30453973  0.21252040  0.28177413     0.97500
C325        C  0.11656405  0.23213783  0.26657816     0.93900
Al326      Al  0.15296337  0.23526783  0.29750656     1.55600
O327        O  0.23255740  0.16159609  0.26157602    -0.77800
C328        C  0.21820687  0.21534915  0.32227398     0.98100
C329        C  0.19670607  0.31348001  0.28371588     0.93000
O330        O  0.19933437  0.28843655  0.27191661    -0.83100
O331        O  0.77703315  0.26932214  0.23048370    -0.82600
C332        C  0.63032620  0.36726165  0.20139359     0.96800
O333        O  0.67381374  0.37396875  0.19882255    -0.71700
O334        O  0.72433448  0.39252029  0.22258571    -0.75300
Al335      Al  0.72985817  0.34584374  0.20730744     1.49000
C336        C  0.73387351  0.38885327  0.23639779     0.92000
O337        O  0.65562884  0.30111703  0.24485440    -0.81500
O338        O  0.68051468  0.20998073  0.21140931    -0.75100
Al339      Al  0.71584443  0.28632971  0.23659200     1.90100
O340        O  0.61533102  0.26277639  0.22759962    -0.74200
O341        O  0.67227758  0.27203267  0.18913682    -0.74000
O342        O  0.61604794  0.32826261  0.20679865    -0.79700
O343        O  0.74083218  0.30658987  0.19013578    -0.77900
O344        O  0.69878694  0.30129293  0.21773926    -1.14000
O345        O  0.79133856  0.32633061  0.21410012    -0.73200
C346        C  0.80537140  0.29221765  0.22230163     0.97500
C347        C  0.61790968  0.28199704  0.24043988     0.93900
Al348      Al  0.65026366  0.27086395  0.20939251     1.55600
O349        O  0.73558008  0.34849901  0.24255157    -0.77800
C350        C  0.71070386  0.28295079  0.18295790     0.98100
C351        C  0.69408466  0.19346175  0.22395868     0.93000
O352        O  0.70077707  0.22047396  0.23511685    -0.83100
C353        C  0.00615139  0.28763160  0.25070969    -0.11600
C354        C  0.99600970  0.25739721  0.23857903     0.05500
C355        C  0.02659075  0.21942263  0.23526350    -0.10400
C356        C  0.06672122  0.21157019  0.24413896    -0.12000
C357        C  0.07575939  0.24078372  0.25667000    -0.01800
C358        C  0.04543544  0.27919266  0.25974913    -0.10900
C359        C  0.95038026  0.26259799  0.23085828     0.05500
H360        H  0.01891206  0.19552314  0.22600402     0.07500
H361        H  0.08981041  0.18191573  0.24150641     0.10900
H362        H  0.05193908  0.30263427  0.26922206     0.11200
H363        H  0.98250653  0.31665453  0.25356646     0.07500
C364        C  0.91679236  0.22646245  0.23232845    -0.11600
C365        C  0.86978804  0.23525659  0.22860750    -0.10900
C366        C  0.85587144  0.28012393  0.22315803    -0.01800
C367        C  0.89029130  0.31488276  0.22042208    -0.12000
C368        C  0.93725506  0.30634383  0.22443199    -0.10400
H369        H  0.92623798  0.19270327  0.23742741     0.07500
H370        H  0.84390738  0.20775445  0.23071371     0.11200
H371        H  0.88038865  0.34973700  0.21624561     0.10900
H372        H  0.96283728  0.33466951  0.22330893     0.07500
C373        C  0.49073516  0.28397002  0.25184647    -0.11600
C374        C  0.49244453  0.26468293  0.26646070     0.05500
C375        C  0.53645089  0.25455652  0.27303847    -0.10400
C376        C  0.57815977  0.26316733  0.26494775    -0.12000
C377        C  0.57593106  0.28068536  0.25010979    -0.01800
C378        C  0.53203005  0.29139915  0.24369713    -0.10900
C379        C  0.44758975  0.25304142  0.27408451     0.05500
H380        H  0.53841276  0.23947831  0.28427617     0.07500
H381        H  0.61185561  0.25395087  0.26994232     0.10900
H382        H  0.52969580  0.30448023  0.23220681     0.11200
H383        H  0.45717447  0.29147165  0.24647966     0.07500
C384        C  0.41168100  0.28739354  0.27460259    -0.11600
C385        C  0.36566602  0.27435565  0.27814006    -0.10900
C386        C  0.35458223  0.22664669  0.28122641    -0.01800
C387        C  0.39117348  0.19291175  0.28207236    -0.12000
C388        C  0.43755910  0.20607187  0.27848087    -0.10400
H389        H  0.41877855  0.32386533  0.27137853     0.07500
H390        H  0.33823352  0.30128345  0.27770471     0.11200
H391        H  0.38346084  0.15595947  0.28446763     0.10900
H392        H  0.46479986  0.17897806  0.27805312     0.07500
C393        C  0.45193948  0.51968470  0.19241992    -0.11600
C394        C  0.49964814  0.52557424  0.19629859     0.05500
C395        C  0.51508098  0.57086289  0.20085666    -0.10400
C396        C  0.48315588  0.60881996  0.20209685    -0.12000
C397        C  0.43508203  0.60237212  0.19877101    -0.01800
C398        C  0.42007380  0.55758687  0.19363227    -0.10900
C399        C  0.53246805  0.48405946  0.19643692     0.05500
H400        H  0.55149513  0.57651239  0.20406624     0.07500
H401        H  0.49587425  0.64278688  0.20613944     0.10900
H402        H  0.38333938  0.55136247  0.19093943     0.11200
H403        H  0.43906573  0.48548495  0.18864110     0.07500
C404        C  0.51733468  0.43983165  0.20203793    -0.11600
C405        C  0.54868080  0.40146309  0.20312122    -0.10900
C406        C  0.59602717  0.40633255  0.19864489    -0.01800
C407        C  0.61094012  0.45019257  0.19269382    -0.12000
C408        C  0.57952556  0.48862181  0.19160971    -0.10400
H409        H  0.48155682  0.43528519  0.20608378     0.07500
H410        H  0.53610320  0.36837706  0.20789969     0.11200
H411        H  0.64719479  0.45517682  0.18916708     0.10900
H412        H  0.59214788  0.52204049  0.18709391     0.07500
C413        C  0.27138574  0.48954530  0.24780548    -0.11600
C414        C  0.26252009  0.49263250  0.26337230     0.05500
C415        C  0.27136393  0.53554969  0.27091153    -0.10400
C416        C  0.28601331  0.57568009  0.26276184    -0.12000
C417        C  0.29264390  0.57312507  0.24701107    -0.01800
C418        C  0.28652997  0.52922286  0.23972565    -0.10900
C419        C  0.24065252  0.45174319  0.27117026     0.05500
H420        H  0.26480628  0.53857571  0.28292394     0.07500
H421        H  0.29066611  0.60901509  0.26869438     0.10900
H422        H  0.29146507  0.52593706  0.22764117     0.11200
H423        H  0.26527166  0.45654897  0.24180784     0.07500
C424        C  0.19933754  0.43212905  0.26514157    -0.11600
C425        C  0.18229523  0.38890369  0.27048217    -0.10900
C426        C  0.20605951  0.36450817  0.28201055    -0.01800
C427        C  0.24541728  0.38559747  0.28888650    -0.12000
C428        C  0.26260924  0.42928248  0.28350995    -0.10400
H429        H  0.18163080  0.44912404  0.25572108     0.07500
H430        H  0.15227543  0.37284540  0.26491515     0.11200
H431        H  0.26491206  0.36661323  0.29752917     0.10900
H432        H  0.29465892  0.44381080  0.28826029     0.07500
C433        C  0.27312935  0.04125479  0.23525134    -0.11600
C434        C  0.26461338  0.99608773  0.24138470     0.05500
C435        C  0.23859071  0.99220057  0.25481469    -0.10400
C436        C  0.22418769  0.03276288  0.26259999    -0.12000
C437        C  0.23559165  0.07816016  0.25712494    -0.01800
C438        C  0.25867317  0.08215318  0.24308815    -0.10900
C439        C  0.28792074  0.95315889  0.23529054     0.05500
H440        H  0.23141150  0.95756732  0.25966176     0.07500
H441        H  0.20594754  0.02849783  0.27326922     0.10900
H442        H  0.26784403  0.11674431  0.23859348     0.11200
H443        H  0.29336024  0.04489447  0.22493458     0.07500
C444        C  0.27835299  0.93569204  0.22073614    -0.11600
C445        C  0.29563442  0.89079457  0.21633825    -0.10900
C446        C  0.32251797  0.86347413  0.22649567    -0.01800
C447        C  0.33471258  0.88288708  0.24054484    -0.12000
C448        C  0.31761441  0.92716511  0.24488651    -0.10400
H449        H  0.25552071  0.95543382  0.21317911     0.07500
H450        H  0.28550416  0.87621928  0.20549993     0.11200
H451        H  0.35570970  0.86263320  0.24851647     0.10900
H452        H  0.32596487  0.94036904  0.25606368     0.07500
C453        C  0.07887246  0.01669452  0.31249464    -0.11600
C454        C  0.03051311  0.02366916  0.30955040     0.05500
C455        C  0.01505820  0.06983278  0.30574191    -0.10400
C456        C  0.04723377  0.10746440  0.30445120    -0.12000
C457        C  0.09574999  0.09999079  0.30693452    -0.01800
C458        C  0.11099706  0.05423813  0.31117762    -0.10900
C459        C  0.99692072  0.98259150  0.30977972     0.05500
H460        H  0.97828201  0.07662774  0.30321564     0.07500
H461        H  0.03421705  0.14215977  0.30109369     0.10900
H462        H  0.14803912  0.04709652  0.31318750     0.11200
H463        H  0.09210058  0.98198946  0.31573430     0.07500
C464        C  0.01130320  0.93750019  0.30455833    -0.11600
C465        C  0.97964215  0.89941020  0.30406544    -0.10900
C466        C  0.93249221  0.90520812  0.30870328    -0.01800
C467        C  0.91814494  0.94999223  0.31417203    -0.12000
C468        C  0.94995227  0.98814492  0.31472987    -0.10400
H469        H  0.04677754  0.93187499  0.30036688     0.07500
H470        H  0.99186228  0.86567746  0.29959897     0.11200
H471        H  0.88205453  0.95584512  0.31776831     0.10900
H472        H  0.93764976  0.02207390  0.31900143     0.07500
C473        C  0.00679003  0.78934903  0.23842205    -0.11600
C474        C  0.03286834  0.74718719  0.24062242     0.05500
C475        C  0.01702140  0.71386287  0.25125549    -0.10400
C476        C  0.97721987  0.72330347  0.25997895    -0.12000
C477        C  0.95199984  0.76600719  0.25815503    -0.01800
C478        C  0.96622455  0.79846739  0.24702918    -0.10900
C479        C  0.07934908  0.73989336  0.23333091     0.05500
H480        H  0.03672038  0.68143760  0.25335414     0.07500
H481        H  0.96648411  0.69735186  0.26834678     0.10900
H482        H  0.94708106  0.83148638  0.24539937     0.11200
H483        H  0.01836240  0.81557265  0.23027046     0.07500
C484        C  0.09289257  0.69470743  0.22799479    -0.11600
C485        C  0.13982666  0.68554461  0.22401087    -0.10900
C486        C  0.17391901  0.72127541  0.22553056    -0.01800
C487        C  0.15974426  0.76720496  0.22988431    -0.12000
C488        C  0.11283719  0.77651049  0.23366365    -0.10400
H489        H  0.06757590  0.66596414  0.22755071     0.07500
H490        H  0.14995414  0.64986988  0.22067864     0.11200
H491        H  0.18540515  0.79546964  0.23101052     0.10900
H492        H  0.10349707  0.81149740  0.23784650     0.07500
C493        C  0.50254133  0.72069107  0.27199640    -0.11600
C494        C  0.53325489  0.75792047  0.26812768     0.05500
C495        C  0.52312830  0.78632236  0.25553984    -0.10400
C496        C  0.48378521  0.77707232  0.24669508    -0.12000
C497        C  0.45323373  0.73950477  0.25031859    -0.01800
C498        C  0.46229324  0.71190254  0.26323668    -0.10900
C499        C  0.57861551  0.76488613  0.27593092     0.05500
H500        H  0.54674396  0.81467842  0.25220155     0.07500
H501        H  0.47748982  0.79933780  0.23690647     0.10900
H502        H  0.43908616  0.68293719  0.26630072     0.11200
H503        H  0.51005865  0.69821842  0.28164438     0.07500
C504        C  0.59249772  0.81075107  0.28034231    -0.11600
C505        C  0.63941003  0.81981426  0.28415362    -0.10900
C506        C  0.67316422  0.78329546  0.28329224    -0.01800
C507        C  0.65861564  0.73678219  0.27990946    -0.12000
C508        C  0.61151781  0.72754451  0.27639313    -0.10400
H509        H  0.56755877  0.84004216  0.27999919     0.07500
H510        H  0.64986985  0.85593330  0.28672571     0.11200
H511        H  0.68409153  0.70799325  0.27932566     0.10900
H512        H  0.60160753  0.69204778  0.27289362     0.07500
C513        C  0.75605046  0.07521290  0.22595510    -0.11600
C514        C  0.73143476  0.05390293  0.23799208     0.05500
C515        C  0.68982638  0.07564550  0.24327104    -0.10400
C516        C  0.67539690  0.11961953  0.23760610    -0.12000
C517        C  0.70167120  0.14236171  0.22633728    -0.01800
C518        C  0.74125508  0.11933359  0.22017809    -0.10900
C519        C  0.75095858  0.01192474  0.24611013     0.05500
H520        H  0.66960053  0.05965526  0.25232383     0.07500
H521        H  0.64514626  0.13723748  0.24262539     0.10900
H522        H  0.76262869  0.13703832  0.21173685     0.11200
H523        H  0.78834444  0.05940778  0.22172436     0.07500
C524        C  0.77014880  0.97272815  0.23834290    -0.11600
C525        C  0.78657286  0.93281863  0.24632973    -0.10900
C526        C  0.78502440  0.93201229  0.26220466    -0.01800
C527        C  0.76733998  0.97188444  0.26991275    -0.12000
C528        C  0.75036574  0.01118545  0.26198003    -0.10400
H529        H  0.77118952  0.97241412  0.22611834     0.07500
H530        H  0.79998292  0.90246058  0.24011994     0.11200
H531        H  0.76527477  0.97218547  0.28212978     0.10900
H532        H  0.73671112  0.04118597  0.26831050     0.07500
C533        C  0.77877636  0.57099365  0.28305528    -0.11600
C534        C  0.79824073  0.55395594  0.26943138     0.05500
C535        C  0.83542961  0.57922178  0.26274081    -0.10400
C536        C  0.84999272  0.62255923  0.26870694    -0.12000
C537        C  0.82801011  0.64159230  0.28156599    -0.01800
C538        C  0.79354956  0.61476304  0.28908509    -0.10900
C539        C  0.77802349  0.51230482  0.26140428     0.05500
H540        H  0.85188425  0.56644665  0.25245666     0.07500
H541        H  0.87656979  0.64280633  0.26271393     0.10900
H542        H  0.77559305  0.62926399  0.29886809     0.11200
H543        H  0.75011867  0.55212941  0.28845893     0.07500
C544        C  0.76741775  0.46984719  0.26903359    -0.11600
C545        C  0.75164837  0.42994465  0.26100256    -0.10900
C546        C  0.74557234  0.43203191  0.24523503    -0.01800
C547        C  0.75417065  0.47521583  0.23776051    -0.12000
C548        C  0.77031786  0.51474996  0.24573329    -0.10400
H549        H  0.77288769  0.46703303  0.28110087     0.07500
H550        H  0.74515917  0.39718028  0.26708640     0.11200
H551        H  0.74980583  0.47812566  0.22564581     0.10900
H552        H  0.77724359  0.54731477  0.23958530     0.07500
C553        C  0.23572156  0.21050063  0.39575371    -0.11600
C554        C  0.26750981  0.23078274  0.38542795     0.05500
C555        C  0.31108100  0.24761109  0.39078987    -0.10400
C556        C  0.32297503  0.24320133  0.40607568    -0.12000
C557        C  0.29159256  0.22175260  0.41630311    -0.01800
C558        C  0.24758809  0.20605454  0.41098988    -0.10900
C559        C  0.25599739  0.23182671  0.36904708     0.05500
H560        H  0.33613233  0.26381203  0.38313458     0.07500
H561        H  0.35716938  0.25560185  0.40981207     0.10900
H562        H  0.22269149  0.18909955  0.41853589     0.11200
H563        H  0.20221800  0.19647916  0.39196318     0.07500
C564        C  0.29031510  0.21950058  0.35825258    -0.11600
C565        C  0.27836817  0.21569137  0.34298736    -0.10900
C566        C  0.23188451  0.22438534  0.33815253    -0.01800
C567        C  0.19801511  0.23865384  0.34884211    -0.12000
C568        C  0.20990372  0.24217984  0.36412798    -0.10400
H569        H  0.32601089  0.21086614  0.36167836     0.07500
H570        H  0.30530941  0.20476641  0.33501625     0.11200
H571        H  0.16191480  0.24563474  0.34547035     0.10900
H572        H  0.18283075  0.25237711  0.37214514     0.07500
C573        C  0.27323066  0.42590944  0.47189786    -0.11600
C574        C  0.28838981  0.44346032  0.48596431     0.05500
C575        C  0.32410522  0.41913136  0.49376315    -0.10400
C576        C  0.34165857  0.37621289  0.48831167    -0.12000
C577        C  0.32398065  0.35651233  0.47491715    -0.01800
C578        C  0.29091359  0.38240642  0.46640228    -0.10900
C579        C  0.26572289  0.48511573  0.49325647     0.05500
H580        H  0.33713738  0.43244706  0.50445242     0.07500
H581        H  0.36720492  0.35685981  0.49505619     0.10900
H582        H  0.27629093  0.36742649  0.45616286     0.11200
H583        H  0.24581742  0.44426450  0.46566572     0.07500
C584        C  0.26105889  0.52871449  0.48567796    -0.11600
C585        C  0.24571540  0.56929259  0.49349955    -0.10900
C586        C  0.23438092  0.56669753  0.50897242    -0.01800
C587        C  0.23621682  0.52229786  0.51622137    -0.12000
C588        C  0.25180666  0.48204692  0.50846137    -0.10400
H589        H  0.27145241  0.53186814  0.47394938     0.07500
H590        H  0.24433854  0.60297995  0.48757493     0.11200
H591        H  0.22734797  0.51891167  0.52807226     0.10900
H592        H  0.25430072  0.44856665  0.51448007     0.07500
C593        C  0.24295376  0.92806863  0.53230135    -0.11600
C594        C  0.22849897  0.94614167  0.51821915     0.05500
C595        C  0.19454587  0.92129877  0.50986713    -0.10400
C596        C  0.17851605  0.87723349  0.51474567    -0.12000
C597        C  0.19571505  0.85720609  0.52815586    -0.01800
C598        C  0.22657591  0.88358021  0.53726335    -0.10900
C599        C  0.25155749  0.98785425  0.51122809     0.05500
H600        H  0.18219004  0.93495807  0.49912252     0.07500
H601        H  0.15457649  0.85744615  0.50759466     0.10900
H602        H  0.24063888  0.86832610  0.54756349     0.11200
H603        H  0.26909359  0.94674237  0.53892225     0.07500
C604        C  0.25500582  0.03162684  0.51876431    -0.11600
C605        C  0.27180741  0.07187140  0.51109328    -0.10900
C606        C  0.28574283  0.06860330  0.49585224    -0.01800
C607        C  0.28490150  0.02401168  0.48872625    -0.12000
C608        C  0.26796141  0.98422110  0.49631075    -0.10400
H609        H  0.24271618  0.03513141  0.53029530     0.07500
H610        H  0.27213768  0.10579217  0.51688441     0.11200
H611        H  0.29570084  0.02008031  0.47705526     0.10900
H612        H  0.26651203  0.95058854  0.49035841     0.07500
C613        C  0.78539342  0.74991656  0.39857477    -0.11600
C614        C  0.75406278  0.76044335  0.38665902     0.05500
C615        C  0.70734371  0.77357585  0.39033407    -0.10400
C616        C  0.69286043  0.77723984  0.40538927    -0.12000
C617        C  0.72501109  0.76923240  0.41712857    -0.01800
C618        C  0.77123180  0.75511478  0.41363135    -0.10900
C619        C  0.77059893  0.76091883  0.37059037     0.05500
H620        H  0.68223872  0.78310497  0.38164068     0.07500
H621        H  0.65719492  0.78887435  0.40786222     0.10900
H622        H  0.79651157  0.74852527  0.42257060     0.11200
H623        H  0.82117946  0.73841535  0.39632939     0.07500
C624        C  0.81756821  0.77297033  0.36697878    -0.11600
C625        C  0.83188636  0.77796329  0.35193484    -0.10900
C626        C  0.79933759  0.77234693  0.34017487    -0.01800
C627        C  0.75294917  0.75896344  0.34361795    -0.12000
C628        C  0.73893537  0.75248912  0.35862467    -0.10400
H629        H  0.84299711  0.78070354  0.37573293     0.07500
H630        H  0.86776236  0.78878547  0.34952404     0.11200
H631        H  0.72737264  0.75399269  0.33467405     0.10900
H632        H  0.70296473  0.74170307  0.36079994     0.07500
C633        C  0.56955467  0.97817986  0.43871287    -0.11600
C634        C  0.52249376  0.97292009  0.44347970     0.05500
C635        C  0.50806944  0.92851665  0.44913333    -0.10400
C636        C  0.54038900  0.89098391  0.45058088    -0.12000
C637        C  0.58793285  0.89692404  0.44640677    -0.01800
C638        C  0.60188128  0.94067397  0.44016530    -0.10900
C639        C  0.48951675  0.01438675  0.44354619     0.05500
H640        H  0.47225260  0.92337753  0.45306074     0.07500
H641        H  0.52846791  0.85785600  0.45550729     0.10900
H642        H  0.63814145  0.94641499  0.43677601     0.11200
H643        H  0.58161927  0.01167980  0.43409282     0.07500
C644        C  0.50530161  0.05932615  0.44829351    -0.11600
C645        C  0.47389540  0.09762310  0.44954759    -0.10900
C646        C  0.42580311  0.09204167  0.44609879    -0.01800
C647        C  0.41018264  0.04745814  0.44094205    -0.12000
C648        C  0.44167511  0.00907645  0.43968749    -0.10400
H649        H  0.54169973  0.06450169  0.45159558     0.07500
H650        H  0.48709782  0.13126363  0.45371012     0.11200
H651        H  0.37337788  0.04188815  0.43821108     0.10900
H652        H  0.42848430  0.97505751  0.43585103     0.07500
C653        C  0.42991068  0.69344598  0.52949718    -0.11600
C654        C  0.44258954  0.73856199  0.52398010     0.05500
C655        C  0.40840812  0.77469887  0.52337883    -0.10400
C656        C  0.36148906  0.76471007  0.52690736    -0.12000
C657        C  0.34814412  0.71861646  0.53129743    -0.01800
C658        C  0.38301639  0.68363197  0.53325462    -0.10900
C659        C  0.48853535  0.74560541  0.51641967     0.05500
H660        H  0.41724133  0.80961753  0.51906469     0.07500
H661        H  0.33519741  0.79243030  0.52547055     0.10900
H662        H  0.37355634  0.64787650  0.53663740     0.11200
H663        H  0.45584525  0.66510430  0.53009835     0.07500
C664        C  0.51565853  0.78671047  0.51885534    -0.11600
C665        C  0.55613210  0.79517734  0.51014899    -0.10900
C666        C  0.56901758  0.76325338  0.49865980    -0.01800
C667        C  0.54232558  0.72185273  0.49649472    -0.12000
C668        C  0.50275073  0.71298269  0.50533102    -0.10400
H669        H  0.50510417  0.81246190  0.52731511     0.07500
H670        H  0.57638983  0.82721068  0.51204875     0.11200
H671        H  0.55188271  0.69631601  0.48784239     0.10900
H672        H  0.48204560  0.68147834  0.50305120     0.07500
C673        C  0.90849674  0.71943704  0.48110627    -0.11600
C674        C  0.94348427  0.75393931  0.47889337     0.05500
C675        C  0.93070429  0.79810145  0.47257143    -0.10400
C676        C  0.88332125  0.80901019  0.46978455    -0.12000
C677        C  0.84802928  0.77599293  0.47336767    -0.01800
C678        C  0.86121110  0.73041698  0.47841178    -0.10900
C679        C  0.99084018  0.74689471  0.48563246     0.05500
H680        H  0.95714398  0.82510188  0.47055332     0.07500
H681        H  0.87415400  0.84415314  0.46568411     0.10900
H682        H  0.83472346  0.70389010  0.48095769     0.11200
H683        H  0.91717646  0.68520608  0.48600808     0.07500
C684        C  0.00988390  0.78327723  0.49456978    -0.11600
C685        C  0.04992453  0.77504297  0.50325177    -0.10900
C686        C  0.07228474  0.73048600  0.50307035    -0.01800
C687        C  0.05520404  0.69465952  0.49353097    -0.12000
C688        C  0.01431057  0.70265872  0.48496809    -0.10400
H689        H  0.99228520  0.81739588  0.49554815     0.07500
H690        H  0.06288486  0.80334094  0.51043268     0.11200
H691        H  0.07209601  0.66005046  0.49325192     0.10900
H692        H  0.00029592  0.67399951  0.47816459     0.07500
C693        C  0.06910927  0.51578236  0.56393545    -0.11600
C694        C  0.02353979  0.51876056  0.55774062     0.05500
C695        C  0.00969344  0.56116812  0.55053832    -0.10400
C696        C  0.04101217  0.59927953  0.54927587    -0.12000
C697        C  0.08698228  0.59582055  0.55513866    -0.01800
C698        C  0.10050169  0.55383994  0.56262711    -0.10900
C699        C  0.99117253  0.47725430  0.55825604     0.05500
H700        H  0.97510944  0.56437531  0.54543977     0.07500
H701        H  0.02965040  0.63091970  0.54329343     0.10900
H702        H  0.13565022  0.55006893  0.56727728     0.11200
H703        H  0.08060985  0.48386134  0.56972809     0.07500
C704        C  0.00835995  0.43096663  0.55564665    -0.11600
C705        C  0.97751289  0.39227901  0.55509576    -0.10900
C706        C  0.92879031  0.39897832  0.55721689    -0.01800
C707        C  0.91178338  0.44504459  0.56027757    -0.12000
C708        C  0.94259160  0.48372851  0.56075829    -0.10400
H709        H  0.04550194  0.42484585  0.55347637     0.07500
H710        H  0.99168225  0.35733480  0.55257833     0.11200
H711        H  0.87439177  0.45152175  0.56183976     0.10900
H712        H  0.92831162  0.51882540  0.56296347     0.07500
C713        C  0.99428377  0.26687841  0.48265195    -0.11600
C714        C  0.03785490  0.26746319  0.49018188     0.05500
C715        C  0.03908009  0.27523746  0.50581232    -0.10400
C716        C  0.99743472  0.28045149  0.51393934    -0.12000
C717        C  0.95373759  0.27880412  0.50655929    -0.01800
C718        C  0.95228982  0.27322401  0.49080723    -0.10900
C719        C  0.08250384  0.25697000  0.48234208     0.05500
H720        H  0.07235417  0.27534622  0.51183770     0.07500
H721        H  0.99929213  0.28473522  0.52608446     0.10900
H722        H  0.91877762  0.27144216  0.48496458     0.11200
H723        H  0.99283002  0.26080252  0.47058939     0.07500
C724        C  0.08995374  0.21235155  0.47558624    -0.11600
C725        C  0.13575566  0.19753076  0.47184087    -0.10900
C726        C  0.17430215  0.22726632  0.47487996    -0.01800
C727        C  0.16598530  0.27348170  0.48036556    -0.12000
C728        C  0.12053672  0.28811050  0.48410568    -0.10400
H729        H  0.06093631  0.18772903  0.47426986     0.07500
H730        H  0.14128194  0.16190223  0.46752373     0.11200
H731        H  0.19496867  0.29759767  0.48249978     0.10900
H732        H  0.11537553  0.32271516  0.48924822     0.07500
C733        C  0.59224262  0.30284497  0.52673007    -0.11600
C734        C  0.57872444  0.25669997  0.52255611     0.05500
C735        C  0.61118062  0.21917487  0.52375140    -0.31200
C736        C  0.65773725  0.22832410  0.52789147    -0.12000
C737        C  0.67202348  0.27492829  0.53120251    -0.01800
C738        C  0.63855804  0.31182661  0.53122814    -0.10900
C739        C  0.53434148  0.24912298  0.51436379     0.05500
H740        H  0.60143355  0.18350869  0.52037880     0.07500
H741        H  0.68312447  0.19938993  0.52782784     0.10900
H742        H  0.64901155  0.34807410  0.53361703     0.11200
H743        H  0.56760442  0.33224641  0.52571732     0.07500
C744        C  0.50125940  0.21533008  0.51919068    -0.11600
C745        C  0.46143178  0.20574695  0.51036228    -0.10900
C746        C  0.45506932  0.22905581  0.49645838    -0.01800
C747        C  0.48837330  0.26294249  0.49177377    -0.12000
C748        C  0.52739861  0.27306676  0.50068215    -0.10400
H749        H  0.50645495  0.19631918  0.52970331     0.07500
H750        H  0.43604535  0.17982873  0.51429226     0.11200
H751        H  0.48427777  0.28190278  0.48120162     0.10900
H752        H  0.55301337  0.29868412  0.49667802     0.07500
C753        C  0.73854842  0.01273568  0.49722445    -0.11600
C754        C  0.76074347  0.00862657  0.51135594     0.05500
C755        C  0.76377382  0.96381014  0.51824789    -0.10400
C756        C  0.74821185  0.92325191  0.51055456    -0.12000
C757        C  0.72929687  0.92705868  0.49589003    -0.01800
C758        C  0.72301442  0.97241220  0.48956432    -0.10900
C759        C  0.78513774  0.05040701  0.51779366     0.05500
H760        H  0.78069175  0.95984944  0.52914035     0.07500
H761        H  0.75323504  0.88874461  0.51576493     0.10900
H762        H  0.70799589  0.97662554  0.47839817     0.11200
H763        H  0.73508610  0.04714137  0.49180940     0.07500
C764        C  0.81502632  0.07678674  0.50839606    -0.11600
C765        C  0.83423577  0.11935553  0.51335746    -0.10900
C766        C  0.82399966  0.13676790  0.52784665    -0.01800
C767        C  0.79708899  0.10881625  0.53777474    -0.12000
C768        C  0.77778927  0.06556603  0.53276647    -0.10400
H769        H  0.82222233  0.06521282  0.49694653     0.07500
H770        H  0.85513974  0.14012233  0.50552575     0.11200
H771        H  0.78834341  0.12188739  0.54894209     0.10900
H772        H  0.75512610  0.04544365  0.54024009     0.07500
C773        C  0.69558762  0.57635299  0.49575672    -0.11600
C774        C  0.72837571  0.54926920  0.48756915     0.05500
C775        C  0.74207734  0.56462054  0.47307706    -0.10400
C776        C  0.72615846  0.60865925  0.46747975    -0.12000
C777        C  0.69631103  0.63723378  0.47633531    -0.01800
C778        C  0.67974876  0.61977014  0.49020518    -0.10900
C779        C  0.75005950  0.50717389  0.49486440     0.05500
H780        H  0.76720863  0.54406859  0.46654587     0.07500
H781        H  0.73974633  0.62179624  0.45683374     0.10900
H782        H  0.65648129  0.64114882  0.49718731     0.11200
H783        H  0.68365542  0.56477255  0.50678841     0.07500
C784        C  0.76684412  0.51081017  0.50974970    -0.11600
C785        C  0.78293003  0.47066669  0.51745909    -0.10900
C786        C  0.78245463  0.42588945  0.51046442    -0.01800
C787        C  0.76767275  0.42256179  0.49531628    -0.12000
C788        C  0.75176271  0.46296697  0.48755457    -0.10400
H789        H  0.76659200  0.54475142  0.51554168     0.07500
H790        H  0.79437271  0.47451954  0.52905960     0.11200
H791        H  0.76696690  0.38849982  0.48961340     0.10900
H792        H  0.73898340  0.45935781  0.47609175     0.07500
C793        C  0.00624076  0.55516645  0.94903027    -0.11600
C794        C  0.99156259  0.51002071  0.94409812     0.05500
C795        C  0.94387954  0.50393011  0.94010068    -0.10400
C796        C  0.91148981  0.54155941  0.94150022    -0.12000
C797        C  0.92599325  0.58621064  0.94693087    -0.01800
C798        C  0.97395370  0.59269784  0.95041686    -0.10900
C799        C  0.02538960  0.46908624  0.94407016     0.05500
H800        H  0.93145594  0.46985126  0.93606707     0.07500
H801        H  0.87485748  0.53531213  0.93867973     0.10900
H802        H  0.98640372  0.62646905  0.95470581     0.11200
H803        H  0.04243870  0.56108918  0.95242140     0.07500
C804        C  0.07294197  0.47550501  0.93995592    -0.11600
C805        C  0.10573522  0.43838707  0.94148264    -0.10900
C806        C  0.09182049  0.39379614  0.94711391    -0.01800
C807        C  0.04393634  0.38676154  0.95064983    -0.12000
C808        C  0.01116934  0.42391150  0.94915467    -0.10400
H809        H  0.08501202  0.50954801  0.93576692     0.07500
H810        H  0.14226334  0.44501583  0.93858680     0.11200
H811        H  0.03199257  0.35297683  0.95509075     0.10900
H812        H  0.97503979  0.41775928  0.95260510     0.07500
C813        C  0.33571079  0.76313178  0.14404176    -0.11600
C814        C  0.29806151  0.74259853  0.13614754     0.05500
C815        C  0.26315614  0.71794096  0.14422567    -0.10400
C816        C  0.26740401  0.71183555  0.15990880    -0.12000
C817        C  0.30640231  0.73070108  0.16768224    -0.01800
C818        C  0.33977958  0.75740340  0.15959395    -0.10900
C819        C  0.29779294  0.74508575  0.11945442     0.05500
H820        H  0.23382216  0.70180603  0.13833545     0.07500
H821        H  0.24116460  0.69104041  0.16584268     0.10900
H822        H  0.37004929  0.77275727  0.16520729     0.11200
H823        H  0.36268509  0.78290885  0.13807826     0.07500
C824        C  0.25871470  0.76273707  0.11142729    -0.11600
C825        C  0.26198783  0.77080169  0.09580211    -0.10900
C826        C  0.30420556  0.76071548  0.08803371    -0.01800
C827        C  0.34205470  0.74035806  0.09604104    -0.12000
C828        C  0.33892905  0.73284424  0.11153550    -0.10400
H829        H  0.22658495  0.77230277  0.11733879     0.07500
H830        H  0.23215042  0.78620556  0.08991224     0.11200
H831        H  0.37497096  0.73169319  0.09043879     0.10900
H832        H  0.36927186  0.71851580  0.11745121     0.07500
C833        C  0.01330468  0.77031355  0.00555761    -0.11600
C834        C  0.02696727  0.73688634  0.01646385     0.05500
C835        C  0.99968340  0.69572495  0.01856295    -0.10400
C836        C  0.95923542  0.68822966  0.00977581    -0.12000
C837        C  0.94671830  0.72112476  0.99851165    -0.01800
C838        C  0.97387187  0.76233686  0.99659942    -0.10900
C839        C  0.07256878  0.74340945  0.02418784     0.05500
H840        H  0.01002255  0.66930548  0.02684163     0.07500
H841        H  0.93868075  0.65624451  0.01143933     0.10900
H842        H  0.96466264  0.78849486  0.98809590     0.11200
H843        H  0.03428680  0.80184192  0.00355992     0.07500
C844        C  0.10804112  0.70900613  0.02244400    -0.11600
C845        C  0.15465638  0.71988384  0.02606950    -0.10900
C846        C  0.16643877  0.76515873  0.03165497    -0.01800
C847        C  0.13027437  0.79798195  0.03472455    -0.12000
C848        C  0.08365073  0.78730142  0.03088276    -0.10400
H849        H  0.10033771  0.67513349  0.01718231     0.07500
H850        H  0.18187364  0.69370023  0.02375261     0.11200
H851        H  0.13841483  0.83302136  0.03905673     0.10900
H852        H  0.05662949  0.81429694  0.03230635     0.07500
C853        C  0.50901294  0.70761535  0.99733934    -0.11600
C854        C  0.52536191  0.74166892  0.98704536     0.05500
C855        C  0.49935173  0.78396855  0.98498699    -0.10400
C856        C  0.45811459  0.79231742  0.99340076    -0.12000
C857        C  0.44340554  0.75896188  0.00420536    -0.01800
C858        C  0.46873184  0.71627677  0.00586353    -0.10900
C859        C  0.57222501  0.73442724  0.98002722     0.05500
H860        H  0.51148953  0.81080624  0.97712616     0.07500
H861        H  0.43899383  0.82542684  0.99194708     0.10900
H862        H  0.45778695  0.68973010  0.01401457     0.11200
H863        H  0.52871297  0.67512782  0.99934575     0.07500
C864        C  0.60690325  0.76959840  0.98147659    -0.11600
C865        C  0.65407301  0.75891007  0.97836313    -0.10900
C866        C  0.66727213  0.71304453  0.97358543    -0.01800
C867        C  0.63208893  0.67910229  0.97090873    -0.12000
C868        C  0.58495013  0.68963586  0.97419842    -0.10400
H869        H  0.59808933  0.80422882  0.98605539     0.07500
H870        H  0.68052095  0.78595888  0.98032158     0.11200
H871        H  0.64129613  0.64359107  0.96716414     0.10900
H872        H  0.55869334  0.66200731  0.97293008     0.07500
C873        C  0.31804527  0.56720086  0.01106222    -0.11600
C874        C  0.28500164  0.54267541  0.01988452     0.05500
C875        C  0.27204522  0.56117851  0.03405596    -0.10400
C876        C  0.28925601  0.60566198  0.03873500    -0.12000
C877        C  0.31954359  0.63159163  0.02926402    -0.01800
C878        C  0.33504865  0.61116922  0.01568613    -0.10900
C879        C  0.26144252  0.50066520  0.01329997     0.05500
H880        H  0.24650886  0.54274876  0.04100680     0.07500
H881        H  0.27631228  0.62122501  0.04913846     0.10900
H882        H  0.35838937  0.63060081  0.00821606     0.11200
H883        H  0.32898968  0.55328032  0.00019407     0.07500
C884        C  0.24065796  0.50481110  0.99898544    -0.11600
C885        C  0.22456680  0.46469838  0.99137490    -0.10900
C886        C  0.22917861  0.41929088  0.99785243    -0.01800
C887        C  0.24723623  0.41539103  0.01262247    -0.12000
C888        C  0.26312194  0.45593410  0.02033143    -0.10400
H889        H  0.23848760  0.53911694  0.99343643     0.07500
H890        H  0.21051723  0.46911493  0.98008850     0.11200
H891        H  0.25123089  0.38086268  0.01790743     0.10900
H892        H  0.27901932  0.45204592  0.03138078     0.07500
C893        C  0.27478523  0.07875297  0.97946908    -0.11600
C894        C  0.24110953  0.04383672  0.98289313     0.05500
C895        C  0.19331487  0.05282055  0.97961795    -0.10400
C896        C  0.17911913  0.09742059  0.97419026    -0.12000
C897        C  0.21263529  0.13312289  0.97177410    -0.01800
C898        C  0.26058666  0.12304961  0.97394683    -0.10900
C899        C  0.25512853  0.00044691  0.99129439     0.05500
H900        H  0.16664590  0.02660484  0.98226794     0.07500
H901        H  0.14184797  0.10511938  0.97290854     0.10900
H902        H  0.28673112  0.15050781  0.97224286     0.11200
H903        H  0.31185567  0.07249915  0.98172347     0.07500
C904        C  0.23782531  0.95563798  0.98712032    -0.11600
C905        C  0.24918778  0.91531678  0.99564454    -0.10900
C906        C  0.27724635  0.91923319  0.00866928    -0.01800
C907        C  0.29464156  0.96401171  0.01282974    -0.12000
C908        C  0.28403354  0.00416806  0.00414229    -0.10400
H909        H  0.21546790  0.95187795  0.97728557     0.07500
H910        H  0.23506708  0.88119505  0.99225423     0.11200
H911        H  0.31636440  0.96795894  0.02280543     0.10900
H912        H  0.29729331  0.03844868  0.00772338     0.07500
C913        C  0.75965606  0.28013075  0.14296483    -0.11600
C914        C  0.72691830  0.25039443  0.13581233     0.05500
C915        C  0.69130086  0.22890625  0.14437559    -0.10400
C916        C  0.68740847  0.23805864  0.15980896    -0.12000
C917        C  0.71892425  0.26922881  0.16700110    -0.01800
C918        C  0.75570761  0.28950487  0.15848168    -0.10900
C919        C  0.72671537  0.24439689  0.11927387     0.05500
H920        H  0.66573725  0.20589348  0.13900139     0.07500
H921        H  0.65884226  0.22166564  0.16603310     0.10900
H922        H  0.78034904  0.31384795  0.16368642     0.11200
H923        H  0.78714045  0.29729201  0.13645683     0.07500
C924        C  0.69117149  0.26649030  0.11079105    -0.11600
C925        C  0.68609244  0.25630656  0.09546404    -0.10900
C926        C  0.71630884  0.22348739  0.08831555    -0.01800
C927        C  0.75330942  0.20292238  0.09669607    -0.12000
C928        C  0.75842622  0.21329094  0.11210618    -0.10400
H929        H  0.66640706  0.29057734  0.11617374     0.07500
H930        H  0.65755888  0.27314799  0.08930783     0.11200
H931        H  0.77708520  0.17749487  0.09149749     0.10900
H932        H  0.78584116  0.19567079  0.11855512     0.07500
C933        C  0.44099937  0.97901221  0.06220625    -0.11600
C934        C  0.48860742  0.97335032  0.05797739     0.05500
C935        C  0.50368485  0.92849706  0.05278793    -0.10400
C936        C  0.47205126  0.89061797  0.05163538    -0.12000
C937        C  0.42432167  0.89647620  0.05557936    -0.01800
C938        C  0.40923690  0.94104841  0.06101016    -0.10900
C939        C  0.52219808  0.01419119  0.05837007     0.05500
H940        H  0.53976243  0.92293329  0.04914560     0.07500
H941        H  0.48485537  0.85697472  0.04727152     0.10900
H942        H  0.37268231  0.94686794  0.06410064     0.11200
H943        H  0.42821532  0.01285058  0.06640653     0.07500
C944        C  0.50752579  0.06019857  0.05415168    -0.11600
C945        C  0.53999961  0.09755696  0.05325803    -0.10900
C946        C  0.58798708  0.08989892  0.05656614    -0.01800
C947        C  0.60235889  0.04436601  0.06129734    -0.12000
C948        C  0.56989923  0.00705192  0.06220896    -0.10400
H949        H  0.47126078  0.06700482  0.05095417     0.07500
H950        H  0.52770970  0.13213686  0.04952412     0.11200
H951        H  0.63900744  0.03717229  0.06393362     0.10900
H952        H  0.58235064  0.97236954  0.06577089     0.07500
C953        C  0.51516380  0.28210560  0.99623362    -0.11600
C954        C  0.49520977  0.24627223  0.98730493     0.05500
C955        C  0.51793174  0.20173070  0.98633371    -0.10400
C956        C  0.55871584  0.19257335  0.99478032    -0.12000
C957        C  0.57634587  0.22755976  0.00450051    -0.01800
C958        C  0.55512226  0.27268940  0.00483576    -0.10900
C959        C  0.44729338  0.25354212  0.98115921     0.05500
H960        H  0.50309024  0.17356671  0.97949825     0.07500
H961        H  0.57486566  0.15762135  0.99435950     0.10900
H962        H  0.56870326  0.30035112  0.01214703     0.11200
H963        H  0.49810730  0.31646544  0.99735505     0.07500
C964        C  0.41242690  0.21968097  0.98423737    -0.11600
C965        C  0.36516097  0.23015360  0.98156078    -0.10900
C966        C  0.35169182  0.27449763  0.97556798    -0.01800
C967        C  0.38676427  0.30729362  0.97155408    -0.12000
C968        C  0.43426424  0.29699392  0.97442819    -0.10400
H969        H  0.42134738  0.18629206  0.98965882     0.07500
H970        H  0.33900278  0.20408461  0.98477528     0.11200
H971        H  0.37737244  0.34162642  0.96686269     0.10900
H972        H  0.46066917  0.32365340  0.97195341     0.07500
C973        C  0.93077860  0.17775246  0.02719333    -0.11600
C974        C  0.94513047  0.22342306  0.02267576     0.05500
C975        C  0.91314787  0.26147472  0.02373995    -0.10400
C976        C  0.86657081  0.25336608  0.02809450    -0.12000
C977        C  0.85141071  0.20721857  0.03169961    -0.01800
C978        C  0.88427945  0.16977705  0.03182866    -0.10900
C979        C  0.99075287  0.23051244  0.01492871     0.05500
H980        H  0.92326638  0.29688381  0.02019462     0.07500
H981        H  0.84177318  0.28280744  0.02794543     0.10900
H982        H  0.87325555  0.13386795  0.03446648     0.11200
H983        H  0.95500135  0.14792642  0.02648947     0.07500
C984        C  0.01969854  0.26942630  0.01846173    -0.11600
C985        C  0.05988742  0.27898376  0.00980126    -0.10900
C986        C  0.07098809  0.25038465  0.99728807    -0.01800
C987        C  0.04253986  0.21094472  0.99398224    -0.12000
C988        C  0.00301435  0.20091313  0.00278094    -0.10400
H989        H  0.01078659  0.29274481  0.02777930     0.07500
H990        H  0.08152024  0.30938581  0.01262646     0.11200
H991        H  0.05073189  0.18790681  0.98452393     0.10900
H992        H  0.98090762  0.17109124  0.99971064     0.07500
C993        C  0.82738041  0.91582890  0.99189577    -0.11600
C994        C  0.78704799  0.93773437  0.98585971     0.05500
C995        C  0.76449811  0.91683467  0.97338303    -0.10400
C996        C  0.78028377  0.87279950  0.96776028    -0.12000
C997        C  0.81889099  0.84969817  0.97451477    -0.01800
C998        C  0.84305372  0.87222901  0.98630424    -0.10900
C999        C  0.76675110  0.97963693  0.99367478     0.05500
H1000       H  0.73310254  0.93303470  0.96864442     0.07500
H1001       H  0.76039234  0.85526867  0.95894278     0.10900
H1002       H  0.87246535  0.85459242  0.99179810     0.11200
H1003       H  0.84549300  0.93149091  0.00143758     0.07500
C1004       C  0.75701250  0.97679585  0.00919442    -0.11600
C1005       C  0.74188846  0.01682524  0.01717714    -0.10900
C1006       C  0.73671461  0.06088996  0.00986237    -0.01800
C1007       C  0.74499352  0.06343339  0.99419034    -0.12000
C1008       C  0.75952286  0.02295935  0.98613026    -0.10400
H1009       H  0.76196411  0.94358195  0.01520984     0.07500
H1010       H  0.73583578  0.01355735  0.02921126     0.11200
H1011       H  0.74126548  0.09689033  0.98823547     0.10900
H1012       H  0.76687824  0.02587660  0.97416159     0.07500
C1013       C  0.68954349  0.41652693  0.01234435    -0.11600
C1014       C  0.72613376  0.44085203  0.01964201     0.05500
C1015       C  0.74492793  0.42218765  0.03310298    -0.10400
C1016       C  0.73027240  0.37743958  0.03833567    -0.12000
C1017       C  0.69683202  0.35144420  0.03010800    -0.01800
C1018       C  0.67525286  0.37212366  0.01747749    -0.10900
C1019       C  0.74774640  0.48211684  0.01198608     0.05500
H1020       H  0.77316793  0.44048958  0.03890154     0.07500
H1021       H  0.74762345  0.36163149  0.04801740     0.10900
H1022       H  0.64933314  0.35250239  0.01101838     0.11200
H1023       H  0.67396808  0.43067401  0.00210674     0.07500
C1024       C  0.76040137  0.47799055  0.99670956    -0.11600
C1025       C  0.77681979  0.51722320  0.98871138    -0.10900
C1026       C  0.78071866  0.56169190  0.99578380    -0.01800
C1027       C  0.77017076  0.56543149  0.01129353    -0.12000
C1028       C  0.75406400  0.52575724  0.01937571    -0.10400
H1029       H  0.75663808  0.44438270  0.99085282     0.07500
H1030       H  0.78481873  0.51302130  0.97682343     0.11200
H1031       H  0.77300207  0.59927197  0.01705547     0.10900
H1032       H  0.74473495  0.52958357  0.03117699     0.07500
C1033       C  0.78698738  0.73711821  0.85791273    -0.11600
C1034       C  0.75402984  0.72818272  0.86953300     0.05500
C1035       C  0.70728859  0.71718749  0.86534709    -0.10400
C1036       C  0.69425052  0.71436770  0.85016376    -0.12000
C1037       C  0.72782947  0.72083642  0.83873893    -0.01800
C1038       C  0.77422725  0.73254635  0.84271104    -0.10900
C1039       C  0.76863271  0.72748029  0.88582087     0.05500
H1040       H  0.68081532  0.70872314  0.87371385     0.07500
H1041       H  0.65838069  0.70456464  0.84735597     0.10900
H1042       H  0.80067830  0.73793121  0.83403943     0.11200
H1043       H  0.82290471  0.74711067  0.86046154     0.07500
C1044       C  0.81543043  0.71626287  0.88999033    -0.11600
C1045       C  0.82809913  0.71169333  0.90518555    -0.10900
C1046       C  0.79408177  0.71666538  0.91657776    -0.01800
C1047       C  0.74775336  0.72886056  0.91261228    -0.12000
C1048       C  0.73538245  0.73519163  0.89745550    -0.10400
H1049       H  0.84218579  0.70898720  0.88158433     0.07500
H1050       H  0.86401718  0.70181940  0.90799966     0.11200
H1051       H  0.72104265  0.73337104  0.92126338     0.10900
H1052       H  0.69947172  0.74557625  0.89494941     0.07500
C1053       C  0.32087146  0.25134396  0.86557968    -0.11600
C1054       C  0.27468066  0.26134529  0.87049433     0.05500
C1055       C  0.24045112  0.27394377  0.85972768    -0.10400
C1056       C  0.25240601  0.27798780  0.84447394    -0.12000
C1057       C  0.29880954  0.26914339  0.83958821    -0.01800
C1058       C  0.33275466  0.25493589  0.85026446    -0.10900
C1059       C  0.26255496  0.26162258  0.88683017     0.05500
H1060       H  0.20474124  0.28249186  0.86317718     0.07500
H1061       H  0.22547575  0.28911748  0.83653861     0.10900
H1062       H  0.36887060  0.24813287  0.84685880     0.11200
H1063       H  0.34791470  0.24126237  0.87361147     0.07500
C1064       C  0.21920082  0.24338099  0.89190506    -0.11600
C1065       C  0.20562795  0.24820153  0.90702552    -0.10900
C1066       C  0.23505957  0.27153201  0.91738872    -0.01800
C1067       C  0.27923097  0.28812616  0.91243128    -0.12000
C1068       C  0.29283207  0.28318101  0.89733056    -0.10400
H1069       H  0.19542766  0.22602942  0.88410452     0.07500
H1070       H  0.17155717  0.23472018  0.91050702     0.11200
H1071       H  0.30280850  0.30620818  0.92012731     0.10900
H1072       H  0.32624332  0.29800228  0.89374447     0.07500
C1073       C  0.45322176  0.47640683  0.81635988    -0.11600
C1074       C  0.50096599  0.47025244  0.81241582     0.05500
C1075       C  0.51626591  0.42476363  0.80785036    -0.10400
C1076       C  0.48424636  0.38705494  0.80662754    -0.12000
C1077       C  0.43613248  0.39389181  0.80993544    -0.01800
C1078       C  0.42124486  0.43880209  0.81510882    -0.10900
C1079       C  0.53377653  0.51174799  0.81209913     0.05500
H1080       H  0.55261072  0.41875136  0.80457232     0.07500
H1081       H  0.49690632  0.35300906  0.80254187     0.10900
H1082       H  0.38450680  0.44536753  0.81779707     0.11200
H1083       H  0.44031372  0.51063511  0.82019339     0.07500
C1084       C  0.51782596  0.55638388  0.80697913    -0.11600
C1085       C  0.54888036  0.59469000  0.80562074    -0.10900
C1086       C  0.59689352  0.58949013  0.80927359    -0.01800
C1087       C  0.61275894  0.54526871  0.81477161    -0.12000
C1088       C  0.58156180  0.50686945  0.81617937    -0.10400
H1089       H  0.48156136  0.56137369  0.80346967     0.07500
H1090       H  0.53545632  0.62804361  0.80121831     0.11200
H1091       H  0.64952265  0.53999259  0.81767093     0.10900
H1092       H  0.59496760  0.47321707  0.82033890     0.07500
C1093       C  0.18080956  0.72603455  0.64421630    -0.11600
C1094       C  0.21849340  0.74414202  0.63573087     0.05500
C1095       C  0.25528344  0.76780143  0.64321481    -0.10400
C1096       C  0.25295028  0.77544742  0.65887000    -0.12000
C1097       C  0.21401173  0.75907746  0.66724265    -0.01800
C1098       C  0.17866417  0.73321902  0.65976233    -0.10900
C1099       C  0.21710766  0.74049527  0.61904980     0.05500
H1100       H  0.28468725  0.78208954  0.63687020     0.07500
H1101       H  0.28068664  0.79552494  0.66431220     0.10900
H1102       H  0.14833479  0.71976574  0.66584306     0.11200
H1103       H  0.15236711  0.70707303  0.63872720     0.07500
C1104       C  0.25513022  0.72153662  0.61079924    -0.11600
C1105       C  0.25111283  0.71439241  0.59516372    -0.10900
C1106       C  0.20921507  0.72671580  0.58755258    -0.01800
C1107       C  0.17214978  0.74757724  0.59580850    -0.12000
C1108       C  0.17599135  0.75417153  0.61135161    -0.10400
H1109       H  0.28716128  0.71068208  0.61652735     0.07500
H1110       H  0.28026100  0.69822962  0.58911312     0.11200
H1111       H  0.13944786  0.75766558  0.59033401     0.10900
H1112       H  0.14642141  0.76942891  0.61744353     0.07500
C1113       C  0.90734633  0.77388870  0.76941916    -0.11600
C1114       C  0.94383725  0.74321471  0.77391589     0.05500
C1115       C  0.93288087  0.70241374  0.78239544    -0.10400
C1116       C  0.88593466  0.69097313  0.78552177    -0.12000
C1117       C  0.84930249  0.72003099  0.78010372    -0.01800
C1118       C  0.86053548  0.76238287  0.77246409    -0.10900
C1119       C  0.99175017  0.75007781  0.76774117     0.05500
H1120       H  0.96057473  0.67838831  0.78605707     0.07500
H1121       H  0.87828554  0.65838516  0.79155622     0.10900
H1122       H  0.83303607  0.78583053  0.76830278     0.11200
H1123       H  0.91476801  0.80523313  0.76272176     0.07500
C1124       C  0.01441134  0.71164834  0.76066279    -0.11600
C1125       C  0.05539044  0.71887532  0.75235064    -0.10900
C1126       C  0.07491802  0.76445715  0.75115437    -0.01800
C1127       C  0.05420921  0.80256554  0.75893947    -0.12000
C1128       C  0.01241132  0.79550706  0.76707334    -0.10400
H1129       H  0.99893174  0.67647659  0.76079331     0.07500
H1130       H  0.07122342  0.68899724  0.74646922     0.11200
H1131       H  0.06890267  0.83797981  0.75807143     0.10900
H1132       H  0.99543544  0.82566095  0.77244357     0.07500
C1133       C  0.43352874  0.79234850  0.72504426    -0.11600
C1134       C  0.44493752  0.74827532  0.73162153     0.05500
C1135       C  0.40995542  0.71350958  0.73311100    -0.10400
C1136       C  0.36338005  0.72415077  0.72936662    -0.12000
C1137       C  0.35123257  0.76950613  0.72389960    -0.01800
C1138       C  0.38692340  0.80277558  0.72105943    -0.10900
C1139       C  0.49029074  0.74154413  0.73943996     0.05500
H1140       H  0.41794515  0.67948892  0.73827844     0.07500
H1141       H  0.33642768  0.69771535  0.73149434     0.10900
H1142       H  0.37834609  0.83790596  0.71682651     0.11200
H1143       H  0.46020895  0.81959055  0.72381518     0.07500
C1144       C  0.51729518  0.69999005  0.73745100    -0.11600
C1145       C  0.55709918  0.69173693  0.74644550    -0.10900
C1146       C  0.56929839  0.72430931  0.75778947    -0.01800
C1147       C  0.54251807  0.76600906  0.75959046    -0.12000
C1148       C  0.50364764  0.77472604  0.75042339    -0.10400
H1149       H  0.50716218  0.67379035  0.72910739     0.07500
H1150       H  0.57750569  0.65948095  0.74483585     0.11200
H1151       H  0.55165554  0.79199948  0.76812496     0.10900
H1152       H  0.48282198  0.80656509  0.75232696     0.07500
C1153       C  0.24879985  0.56336768  0.72342465    -0.11600
C1154       C  0.24035971  0.54792928  0.73830057     0.05500
C1155       C  0.20989080  0.57432359  0.74756087    -0.10400
C1156       C  0.19126132  0.61726411  0.74258713    -0.12000
C1157       C  0.20257949  0.63487051  0.72821972    -0.01800
C1158       C  0.22998996  0.60691454  0.71839411    -0.10900
C1159       C  0.26458783  0.50609003  0.74482968     0.05500
H1160       H  0.20188815  0.56250999  0.75892696     0.07500
H1161       H  0.16984142  0.63806728  0.75030697     0.10900
H1162       H  0.23944241  0.62016158  0.70731189     0.11200
H1163       H  0.27195486  0.54322712  0.71606765     0.07500
C1164       C  0.26251538  0.46142304  0.73783346    -0.11600
C1165       C  0.27821855  0.42083268  0.74553944    -0.10900
C1166       C  0.29630379  0.42452229  0.76030610    -0.01800
C1167       C  0.30161287  0.46975959  0.76675100    -0.12000
C1168       C  0.28593284  0.51008919  0.75908437    -0.10400
H1169       H  0.24627976  0.45759882  0.72683675     0.07500
H1170       H  0.27395213  0.38638591  0.74024936     0.11200
H1171       H  0.31593877  0.47386191  0.77800851     0.10900
H1172       H  0.28866129  0.54441189  0.76457343     0.07500
C1173       C  0.32584006  0.07403594  0.76051864    -0.11600
C1174       C  0.29080855  0.04868091  0.76823377     0.05500
C1175       C  0.27594202  0.06482447  0.78253771    -0.10400
C1176       C  0.29324342  0.10790345  0.78839206    -0.12000
C1177       C  0.32574804  0.13474811  0.78001495    -0.01800
C1178       C  0.34310844  0.11644850  0.76634102    -0.10900
C1179       C  0.26900730  0.00699153  0.76076114     0.05500
H1180       H  0.24909765  0.04564000  0.78872921     0.07500
H1181       H  0.27884304  0.12177582  0.79884218     0.10900
H1182       H  0.36824199  0.13654106  0.75969183     0.11200
H1183       H  0.33874215  0.06181632  0.74966385     0.07500
C1184       C  0.25512080  0.01017216  0.74554527    -0.11600
C1185       C  0.23998076  0.96990417  0.73772075    -0.10900
C1186       C  0.23854188  0.92544797  0.74492872    -0.01800
C1187       C  0.25008669  0.92274630  0.76038484    -0.12000
C1188       C  0.26502172  0.96322112  0.76824586    -0.10400
H1189       H  0.25712713  0.04377158  0.73958565     0.07500
H1190       H  0.23094445  0.97333066  0.72588813     0.11200
H1191       H  0.24913680  0.88901724  0.76628957     0.10900
H1192       H  0.27551108  0.95987958  0.77995648     0.07500
C1193       C  0.84518465  0.25549568  0.64415019    -0.11600
C1194       C  0.80374557  0.24249544  0.63658273     0.05500
C1195       C  0.76613216  0.22324314  0.64488369    -0.10400
C1196       C  0.77090140  0.21507903  0.66045064    -0.12000
C1197       C  0.81315328  0.22664620  0.66792819    -0.01800
C1198       C  0.84977572  0.24790115  0.65962937    -0.10900
C1199       C  0.80193513  0.24642313  0.61993258     0.05500
H1200       H  0.73391229  0.21285092  0.63922807     0.07500
H1201       H  0.74208786  0.19863733  0.66653882     0.10900
H1202       H  0.88271487  0.25745655  0.66500481     0.11200
H1203       H  0.87448091  0.27079838  0.63798067     0.07500
C1204       C  0.76661444  0.27293528  0.61259937    -0.11600
C1205       C  0.76912800  0.28080945  0.59695182    -0.10900
C1206       C  0.80678311  0.26185731  0.58846457    -0.01800
C1207       C  0.84042310  0.23315121  0.59580489    -0.12000
C1208       C  0.83813183  0.22575205  0.61133589    -0.10400
H1209       H  0.73840260  0.28922859  0.61905965     0.07500
H1210       H  0.74275954  0.30315096  0.59162056     0.11200
H1211       H  0.86967945  0.21764759  0.58962880     0.10900
H1212       H  0.86541466  0.20469838  0.61674038     0.07500
C1213       C  0.01333020  0.05725241  0.70206706    -0.11600
C1214       C  0.99744932  0.01359012  0.69627163     0.05500
C1215       C  0.95031940  0.00984445  0.69151459    -0.10400
C1216       C  0.91941971  0.04846588  0.69293949    -0.12000
C1217       C  0.93500085  0.09167234  0.69914684    -0.01800
C1218       C  0.98249217  0.09586127  0.70346928    -0.10900
C1219       C  0.02944972  0.97164340  0.69594945     0.05500
H1220       H  0.93720665  0.97687409  0.68682974     0.07500
H1221       H  0.88303253  0.04409297  0.68949457     0.10900
H1222       H  0.99554455  0.12852275  0.70839254     0.11200
H1223       H  0.04922912  0.06110821  0.70605005     0.07500
C1224       C  0.07729423  0.97694923  0.69216545    -0.11600
C1225       C  0.10842188  0.93850849  0.69328270    -0.10900
C1226       C  0.09243538  0.89384072  0.69821797    -0.01800
C1227       C  0.04422730  0.88798968  0.70142822    -0.12000
C1228       C  0.01305325  0.92649036  0.70029405    -0.10400
H1229       H  0.09084865  0.01108664  0.68856021     0.07500
H1230       H  0.14534614  0.94423875  0.69072051     0.11200
H1231       H  0.03083933  0.85408192  0.70531452     0.10900
H1232       H  0.97649245  0.92134600  0.70344232     0.07500
C1233       C  0.76369707  0.02433242  0.76930171    -0.11600
C1234       C  0.75279197  0.98258324  0.76133671     0.05500
C1235       C  0.76168258  0.98095673  0.74572135    -0.10400
C1236       C  0.77890660  0.02070463  0.73808991    -0.12000
C1237       C  0.78751656  0.06334475  0.74585112    -0.01800
C1238       C  0.78061976  0.06450014  0.76160548    -0.10900
C1239       C  0.73066586  0.94096885  0.76888502     0.05500
H1240       H  0.75461985  0.94892008  0.73932810     0.07500
H1241       H  0.78392970  0.01844015  0.72598593     0.10900
H1242       H  0.78707842  0.09681810  0.76791551     0.11200
H1243       H  0.75739087  0.02648882  0.78134412     0.07500
C1244       C  0.74839300  0.92225578  0.78251722    -0.11600
C1245       C  0.73163767  0.87858898  0.78809370    -0.10900
C1246       C  0.69700357  0.85344329  0.78009439    -0.01800
C1247       C  0.67689482  0.87408752  0.76718391    -0.12000
C1248       C  0.69332139  0.91740293  0.76169265    -0.10400
H1249       H  0.77713665  0.93976499  0.78830055     0.07500
H1250       H  0.74816131  0.86284989  0.79793560     0.11200
H1251       H  0.65016575  0.85524345  0.76083333     0.10900
H1252       H  0.67815798  0.93151553  0.75138849     0.07500
C1253       C  0.83041865  0.41706489  0.74610764    -0.11600
C1254       C  0.79687689  0.44250487  0.73769421     0.05500
C1255       C  0.78331085  0.42533468  0.72342664    -0.10400
C1256       C  0.79998733  0.38102005  0.71833116    -0.12000
C1257       C  0.83028285  0.35393582  0.72749362    -0.01800
C1258       C  0.84683741  0.37320712  0.74107854    -0.10900
C1259       C  0.77350664  0.48412128  0.74470876     0.05500
H1260       H  0.75757270  0.44456997  0.71674129     0.07500
H1261       H  0.78650365  0.36641858  0.70787966     0.10900
H1262       H  0.87045110  0.35291436  0.74825711     0.11200
H1263       H  0.84214687  0.43009428  0.75698444     0.07500
C1264       C  0.75587701  0.48012654  0.75948074    -0.11600
C1265       C  0.73842685  0.51987992  0.76706123    -0.10900
C1266       C  0.73833474  0.56468806  0.76005643    -0.01800
C1267       C  0.75362799  0.56828466  0.74495640    -0.12000
C1268       C  0.77093136  0.52818184  0.73730743    -0.10400
H1269       H  0.75672253  0.44624433  0.76531723     0.07500
H1270       H  0.72660285  0.51576121  0.77862128     0.11200
H1271       H  0.75395510  0.60238144  0.73925825     0.10900
H1272       H  0.78423419  0.53198169  0.72590348     0.07500
C1273       C  0.01438806  0.28315233  0.76002587    -0.11600
C1274       C  0.03412131  0.24766707  0.76922661     0.05500
C1275       C  0.01136804  0.20331573  0.77032632    -0.10400
C1276       C  0.97083129  0.19400697  0.76178949    -0.12000
C1277       C  0.95334778  0.22863697  0.75185481    -0.01800
C1278       C  0.97462270  0.27360549  0.75136360    -0.10900
C1279       C  0.08160713  0.25520029  0.77573082     0.05500
H1280       H  0.02585695  0.17543262  0.77739954     0.07500
H1281       H  0.95462854  0.15922109  0.76237529     0.10900
H1282       H  0.96112400  0.30111282  0.74393269     0.11200
H1283       H  0.03135065  0.31739753  0.75879390     0.07500
C1284       C  0.11661601  0.22043501  0.77360943    -0.11600
C1285       C  0.16371410  0.23075770  0.77661431    -0.10900
C1286       C  0.17679511  0.27596242  0.78189172    -0.01800
C1287       C  0.14151285  0.30964058  0.78510495    -0.12000
C1288       C  0.09424231  0.29940523  0.78196670    -0.10400
H1289       H  0.10806898  0.18630322  0.76867218     0.07500
H1290       H  0.19017376  0.20386042  0.77422814     0.11200
H1291       H  0.15066063  0.34462760  0.78926769     0.10900
H1292       H  0.06778435  0.32670835  0.78380448     0.07500
C1293       C  0.51164455  0.28706647  0.73910757    -0.11600
C1294       C  0.53661130  0.24393392  0.74033469     0.05500
C1295       C  0.52003544  0.20852158  0.75013510    -0.10400
C1296       C  0.48037117  0.21678288  0.75904400    -0.12000
C1297       C  0.45609541  0.26027163  0.75812511    -0.01800
C1298       C  0.47116480  0.29494993  0.74782071    -0.10900
C1299       C  0.58303026  0.23765738  0.73306133     0.05500
H1300       H  0.53908570  0.17529160  0.75143554     0.07500
H1301       H  0.46885472  0.18926456  0.76677427     0.10900
H1302       H  0.45267955  0.32862439  0.74691900     0.11200
H1303       H  0.52405925  0.31489871  0.73164981     0.07500
C1304       C  0.59490530  0.19464826  0.72588707    -0.11600
C1305       C  0.64172176  0.18501688  0.72190672    -0.10900
C1306       C  0.67721006  0.21799201  0.72531128    -0.01800
C1307       C  0.66468440  0.26227406  0.73151518    -0.12000
C1308       C  0.61795695  0.27210497  0.73529218    -0.10400
H1309       H  0.56832679  0.16767984  0.72403268     0.07500
H1310       H  0.65053546  0.15069113  0.71710023     0.11200
H1311       H  0.69139394  0.28850778  0.73411577     0.10900
H1312       H  0.60970558  0.30530263  0.74093006     0.07500
loop_ 
_geom_bond_atom_site_label_1 
_geom_bond_atom_site_label_2 
_geom_bond_distance 
_geom_bond_site_symmetry_2 
_ccdc_geom_bond_type 
O1           C16   1.259       .  A
O1           Al9   1.871       .  S
C2           O12   1.266       .  A
C2            O3   1.270       .  A
C2         C1217   1.480       .  S
O3           Al5   1.926       .  S
O4            C6   1.257       .  A
O4           Al5   1.892       .  S
Al5          O13   1.906       .  S
Al5          O15   1.921       .  S
Al5          O14   1.783       .  S
C6           O19   1.259       .  A
C6         C1237   1.484       .  S
O7           C17   1.260       .  A
O7           Al9   1.908       .  S
O8           C21   1.267       .  A
O8          Al18   1.918       .  S
Al9          O22   1.911       .  S
Al9          O19   1.911       .  S
Al9          O14   1.780       .  S
O10          C17   1.261       .  A
O10         Al18   1.909       .  S
O11          C20   1.257       .  A
O11         Al18   1.900       .  S
O12         Al18   1.891       .  S
O13          C20   1.257       .  A
O14         Al18   1.783       .  S
O15          C16   1.266       .  A
C16        C1306   1.471       .  S
C17        C1277   1.468       .  S
C20        C1197   1.483       .  S
C21          O22   1.266       .  A
C21        C1257   1.468       .  S
O23          C38   1.259       .  A
O23         Al31   1.870       .  S
C24          O34   1.266       .  A
C24          O25   1.270       .  A
C24        C1226   1.479       .  S
O25         Al27   1.920       .  S
O26          C28   1.257       .  A
O26         Al27   1.900       .  S
Al27         O35   1.909       .  S
Al27         O37   1.924       .  S
Al27         O36   1.784       .  S
C28          O41   1.256       .  A
C28        C1186   1.483       .  S
O29          C39   1.260       .  A
O29         Al31   1.906       .  S
O30          C43   1.266       .  A
O30         Al40   1.922       .  S
Al31         O44   1.903       .  S
Al31         O41   1.898       .  S
Al31         O36   1.779       .  S
O32          C39   1.261       .  A
O32         Al40   1.909       .  S
O33          C42   1.255       .  A
O33         Al40   1.891       .  S
O34         Al40   1.894       .  S
O35          C42   1.257       .  A
O36         Al40   1.782       .  S
O37          C38   1.267       .  A
C38        C1137   1.469       .  S
C39        C1126   1.463       .  S
C42        C1097   1.483       .  S
C43          O44   1.264       .  A
C43        C1157   1.469       .  S
O45          C60   1.260       .  A
O45         Al53   1.873       .  S
C46          O56   1.266       .  A
C46          O47   1.269       .  A
C46        C1077   1.487       .  S
O47         Al49   1.925       .  S
O48          C50   1.256       .  A
O48         Al49   1.892       .  S
Al49         O57   1.888       .  S
Al49         O59   1.934       .  S
Al49         O58   1.777       .  S
C50          O63   1.256       .  A
C50        C1166   1.478       .  S
O51          C61   1.262       .  A
O51         Al53   1.898       .  S
O52          C65   1.268       .  A
O52         Al62   1.935       .  S
Al53         O66   1.896       .  S
Al53         O63   1.904       .  S
Al53         O58   1.778       .  S
O54          C61   1.266       .  A
O54         Al62   1.921       .  S
O55          C64   1.260       .  A
O55         Al62   1.920       .  S
O56         Al62   1.903       .  S
O57          C64   1.256       .  A
O58         Al62   1.783       .  S
O59          C60   1.269       .  A
C60        C1286   1.474       .  S
C61        C1297   1.467       .  S
C64        C1057   1.482       .  S
C65          O66   1.261       .  A
C65        C1177   1.472       .  S
O67          C82   1.259       .  A
O67         Al75   1.870       .  S
C68          O78   1.266       .  A
C68          O69   1.271       .  A
C68        C1086   1.487       .  S
O69         Al71   1.938       .  S
O70          C72   1.256       .  A
O70         Al71   1.888       .  S
Al71         O79   1.894       .  S
Al71         O81   1.928       .  S
Al71         O80   1.775       .  S
C72          O85   1.258       .  A
C72        C1266   1.480       .  S
O73          C83   1.261       .  A
O73         Al75   1.899       .  S
O74          C87   1.268       .  A
O74         Al84   1.929       .  S
Al75         O88   1.911       .  S
Al75         O85   1.911       .  S
Al75         O80   1.778       .  S
O76          C83   1.265       .  A
O76         Al84   1.918       .  S
O77          C86   1.259       .  A
O77         Al84   1.918       .  S
O78         Al84   1.894       .  S
O79          C86   1.254       .  A
O80         Al84   1.780       .  S
O81          C82   1.268       .  A
C82        C1117   1.474       .  S
C83        C1146   1.469       .  S
C86        C1037   1.474       .  S
C87          O88   1.264       .  A
C87        C1246   1.473       .  S
O89         C104   1.259       .  A
O89         Al97   1.875       .  S
C90         O100   1.264       .  A
C90          O91   1.270       .  A
C90         C946   1.487       .  S
O91         Al93   1.933       .  S
O92          C94   1.258       .  A
O92         Al93   1.891       .  S
Al93        O101   1.906       .  S
Al93        O103   1.931       .  S
Al93        O102   1.782       .  S
C94         O107   1.260       .  A
C94        C1006   1.483       .  S
O95         C105   1.261       .  A
O95         Al97   1.904       .  S
O96         C109   1.264       .  A
O96        Al106   1.914       .  S
Al97        O110   1.912       .  S
Al97        O107   1.915       .  S
Al97        O102   1.780       .  S
O98         C105   1.262       .  A
O98        Al106   1.909       .  S
O99         C108   1.258       .  A
O99        Al106   1.901       .  S
O100       Al106   1.894       .  S
O101        C108   1.258       .  A
O102       Al106   1.782       .  S
O103        C104   1.267       .  A
C104        C977   1.471       .  S
C105        C957   1.465       .  S
C108        C926   1.482       .  S
C109        O110   1.264       .  A
C109       C1017   1.465       .  S
O111        C126   1.259       .  A
O111       Al119   1.873       .  S
C112        O122   1.266       .  A
C112        O113   1.271       .  A
C112        C937   1.487       .  S
O113       Al115   1.935       .  S
O114        C116   1.257       .  A
O114       Al115   1.897       .  S
Al115       O123   1.913       .  S
Al115       O125   1.932       .  S
Al115       O124   1.784       .  S
C116        O129   1.257       .  A
C116        C906   1.476       .  S
O117        C127   1.263       .  A
O117       Al119   1.916       .  S
O118        C131   1.267       .  A
O118       Al128   1.925       .  S
Al119       O132   1.907       .  S
Al119       O129   1.901       .  S
Al119       O124   1.781       .  S
O120        C127   1.261       .  A
O120       Al128   1.903       .  S
O121        C130   1.255       .  A
O121       Al128   1.888       .  S
O122       Al128   1.895       .  S
O123        C130   1.258       .  A
O124       Al128   1.778       .  S
O125        C126   1.268       .  A
C126        C846   1.475       .  S
C127        C857   1.471       .  S
C130        C826   1.482       .  S
C131        O132   1.264       .  A
C131        C877   1.470       .  S
O133        C148   1.260       .  A
O133       Al141   1.880       .  S
C134        O144   1.265       .  A
C134        O135   1.271       .  A
C134        C797   1.489       .  S
O135       Al137   1.939       .  S
O136        C138   1.257       .  A
O136       Al137   1.888       .  S
Al137       O145   1.894       .  S
Al137       O147   1.930       .  S
Al137       O146   1.776       .  S
C138        O151   1.258       .  A
C138       C1026   1.479       .  S
O139        C149   1.262       .  A
O139       Al141   1.905       .  S
O140        C153   1.267       .  A
O140       Al150   1.927       .  S
Al141       O154   1.907       .  S
Al141       O151   1.910       .  S
Al141       O146   1.780       .  S
O142        C149   1.265       .  A
O142       Al150   1.916       .  S
O143        C152   1.259       .  A
O143       Al150   1.917       .  S
O144       Al150   1.895       .  S
O145        C152   1.255       .  A
O146       Al150   1.781       .  S
O147        C148   1.268       .  A
C148        C866   1.475       .  S
C149        C837   1.471       .  S
C152       C1046   1.474       .  S
C153        O154   1.263       .  A
C153        C997   1.469       .  S
O155        C170   1.257       .  A
O155       Al163   1.866       .  S
C156        O166   1.265       .  A
C156        O157   1.270       .  A
C156        C806   1.488       .  S
O157       Al159   1.934       .  S
O158        C160   1.256       .  A
O158       Al159   1.882       .  S
Al159       O167   1.885       .  S
Al159       O169   1.934       .  S
Al159       O168   1.777       .  S
C160        O173   1.261       .  A
C160        C886   1.482       .  S
O161        C171   1.261       .  A
O161       Al163   1.896       .  S
O162        C175   1.264       .  A
O162       Al172   1.909       .  S
Al163       O176   1.912       .  S
Al163       O173   1.924       .  S
Al163       O168   1.780       .  S
O164        C171   1.265       .  A
O164       Al172   1.921       .  S
O165        C174   1.262       .  A
O165       Al172   1.924       .  S
O166       Al172   1.898       .  S
O167        C174   1.255       .  A
O168       Al172   1.784       .  S
O169        C170   1.267       .  A
C170        C966   1.475       .  S
C171        C986   1.473       .  S
C174       C1066   1.483       .  S
C175        O176   1.264       .  A
C175        C897   1.462       .  S
O177        C192   1.261       .  A
O177       Al185   1.881       .  S
C178        O188   1.264       .  A
C178        O179   1.267       .  A
C178        C706   1.481       .  S
O179       Al181   1.916       .  S
O180        C182   1.257       .  A
O180       Al181   1.893       .  S
Al181       O189   1.910       .  S
Al181       O191   1.920       .  S
Al181       O190   1.785       .  S
C182        O195   1.257       .  A
C182        C786   1.479       .  S
O183        C193   1.262       .  A
O183       Al185   1.902       .  S
O184        C197   1.265       .  A
O184       Al194   1.928       .  S
Al185       O198   1.895       .  S
Al185       O195   1.902       .  S
Al185       O190   1.784       .  S
O186        C193   1.263       .  A
O186       Al194   1.905       .  S
O187        C196   1.257       .  A
O187       Al194   1.891       .  S
O188       Al194   1.895       .  S
O189        C196   1.258       .  A
O190       Al194   1.780       .  S
O191        C192   1.266       .  A
C192        C737   1.467       .  S
C193        C717   1.467       .  S
C196       C1206   1.483       .  S
C197        O198   1.261       .  A
C197        C766   1.472       .  S
O199        C214   1.260       .  A
O199       Al207   1.878       .  S
C200        O210   1.264       .  A
C200        O201   1.270       .  A
C200        C637   1.486       .  S
O201       Al203   1.932       .  S
O202        C204   1.258       .  A
O202       Al203   1.895       .  S
Al203       O211   1.891       .  S
Al203       O213   1.931       .  S
Al203       O212   1.777       .  S
C204        O217   1.258       .  A
C204        C757   1.480       .  S
O205        C215   1.264       .  A
O205       Al207   1.906       .  S
O206        C219   1.267       .  A
O206       Al216   1.930       .  S
Al207       O220   1.895       .  S
Al207       O217   1.907       .  S
Al207       O212   1.778       .  S
O208        C215   1.266       .  A
O208       Al216   1.916       .  S
O209        C218   1.260       .  A
O209       Al216   1.921       .  S
O210       Al216   1.895       .  S
O211        C218   1.255       .  A
O212       Al216   1.782       .  S
O213        C214   1.268       .  A
C214        C677   1.476       .  S
C215        C666   1.472       .  S
C218        C617   1.473       .  S
C219        O220   1.261       .  A
C219        C777   1.470       .  S
O221        C236   1.259       .  A
O221       Al229   1.864       .  S
C222        O232   1.266       .  A
C222        O223   1.270       .  A
C222        C646   1.486       .  S
O223       Al225   1.932       .  S
O224        C226   1.254       .  A
O224       Al225   1.880       .  S
Al225       O233   1.884       .  S
Al225       O235   1.935       .  S
Al225       O234   1.778       .  S
C226        O239   1.257       .  A
C226        C606   1.480       .  S
O227        C237   1.263       .  A
O227       Al229   1.900       .  S
O228        C241   1.268       .  A
O228       Al238   1.930       .  S
Al229       O242   1.902       .  S
Al229       O239   1.913       .  S
Al229       O234   1.782       .  S
O230        C237   1.265       .  A
O230       Al238   1.914       .  S
O231        C240   1.258       .  A
O231       Al238   1.916       .  S
O232       Al238   1.895       .  S
O233        C240   1.253       .  A
O234       Al238   1.782       .  S
O235        C236   1.269       .  A
C236        C726   1.474       .  S
C237        C746   1.474       .  S
C240        C557   1.482       .  S
C241        O242   1.262       .  A
C241        C577   1.471       .  S
O243        C258   1.259       .  A
O243       Al251   1.876       .  S
C244        O254   1.265       .  A
C244        O245   1.270       .  A
C244        C697   1.481       .  S
O245       Al247   1.929       .  S
O246        C248   1.257       .  A
O246       Al247   1.891       .  S
Al247       O255   1.905       .  S
Al247       O257   1.928       .  S
Al247       O256   1.782       .  S
C248        O261   1.258       .  A
C248        C586   1.482       .  S
O249        C259   1.261       .  A
O249       Al251   1.909       .  S
O250        C263   1.266       .  A
O250       Al260   1.919       .  S
Al251       O264   1.910       .  S
Al251       O261   1.908       .  S
Al251       O256   1.779       .  S
O252        C259   1.262       .  A
O252       Al260   1.912       .  S
O253        C262   1.258       .  A
O253       Al260   1.902       .  S
O254       Al260   1.892       .  S
O255        C262   1.257       .  A
O256       Al260   1.780       .  S
O257        C258   1.267       .  A
C258        C657   1.472       .  S
C259        C686   1.469       .  S
C262       C1106   1.483       .  S
C263        O264   1.265       .  A
C263        C597   1.468       .  S
O265        C280   1.260       .  A
O265       Al273   1.884       .  S
C266        O276   1.265       .  A
C266        O267   1.271       .  A
C266        C466   1.491       .  S
O267       Al269   1.938       .  S
O268        C270   1.257       .  A
O268       Al269   1.884       .  S
Al269       O277   1.891       .  S
Al269       O279   1.921       .  S
Al269       O278   1.779       .  S
C270        O283   1.260       .  A
C270        C526   1.479       .  S
O271        C281   1.263       .  A
O271       Al273   1.909       .  S
O272        C285   1.269       .  A
O272       Al282   1.931       .  S
Al273       O286   1.905       .  S
Al273       O283   1.917       .  S
Al273       O278   1.779       .  S
O274        C281   1.263       .  A
O274       Al282   1.911       .  S
O275        C284   1.259       .  A
O275       Al282   1.923       .  S
O276       Al282   1.898       .  S
O277        C284   1.254       .  A
O278       Al282   1.784       .  S
O279        C280   1.265       .  A
C280        C506   1.471       .  S
C281        C477   1.471       .  S
C284        C626   1.474       .  S
C285        O286   1.264       .  A
C285        C537   1.471       .  S
O287        C302   1.259       .  A
O287       Al295   1.876       .  S
C288        O298   1.266       .  A
C288        O289   1.269       .  A
C288        C397   1.485       .  S
O289       Al291   1.925       .  S
O290        C292   1.257       .  A
O290       Al291   1.889       .  S
Al291       O299   1.905       .  S
Al291       O301   1.927       .  S
Al291       O300   1.784       .  S
C292        O305   1.258       .  A
C292        C417   1.481       .  S
O293        C303   1.262       .  A
O293       Al295   1.907       .  S
O294        C307   1.266       .  A
O294       Al304   1.924       .  S
Al295       O308   1.904       .  S
Al295       O305   1.908       .  S
Al295       O300   1.782       .  S
O296        C303   1.262       .  A
O296       Al304   1.905       .  S
O297        C306   1.257       .  A
O297       Al304   1.895       .  S
O298       Al304   1.899       .  S
O299        C306   1.257       .  A
O300       Al304   1.781       .  S
O301        C302   1.266       .  A
C302        C486   1.472       .  S
C303        C497   1.474       .  S
C306        C817   1.481       .  S
C307        O308   1.264       .  A
C307        C446   1.472       .  S
O309        C324   1.259       .  A
O309       Al317   1.869       .  S
C310        O320   1.265       .  A
C310        O311   1.270       .  A
C310        C457   1.491       .  S
O311       Al313   1.933       .  S
O312        C314   1.256       .  A
O312       Al313   1.885       .  S
Al313       O321   1.889       .  S
Al313       O323   1.942       .  S
Al313       O322   1.776       .  S
C314        O327   1.259       .  A
C314        C437   1.478       .  S
O315        C325   1.262       .  A
O315       Al317   1.896       .  S
O316        C329   1.265       .  A
O316       Al326   1.925       .  S
Al317       O330   1.906       .  S
Al317       O327   1.916       .  S
Al317       O322   1.779       .  S
O318        C325   1.267       .  A
O318       Al326   1.922       .  S
O319        C328   1.261       .  A
O319       Al326   1.920       .  S
O320       Al326   1.903       .  S
O321        C328   1.256       .  A
O322       Al326   1.781       .  S
O323        C324   1.269       .  A
C324        C386   1.475       .  S
C325        C357   1.472       .  S
C328        C566   1.481       .  S
C329        O330   1.262       .  A
C329        C426   1.467       .  S
O331        C346   1.259       .  A
O331       Al339   1.876       .  S
C332        O342   1.264       .  A
C332        O333   1.268       .  A
C332        C406   1.484       .  S
O333       Al335   1.925       .  S
O334        C336   1.257       .  A
O334       Al335   1.891       .  S
Al335       O343   1.904       .  S
Al335       O345   1.922       .  S
Al335       O344   1.789       .  S
C336        O349   1.259       .  A
C336        C546   1.483       .  S
O337        C347   1.261       .  A
O337       Al339   1.901       .  S
O338        C351   1.264       .  A
O338       Al348   1.920       .  S
Al339       O352   1.906       .  S
Al339       O349   1.911       .  S
Al339       O344   1.788       .  S
O340        C347   1.261       .  A
O340       Al348   1.905       .  S
O341        C350   1.257       .  A
O341       Al348   1.899       .  S
O342       Al348   1.893       .  S
O343        C350   1.257       .  A
O344       Al348   1.783       .  S
O345        C346   1.266       .  A
C346        C366   1.472       .  S
C347        C377   1.466       .  S
C350        C917   1.483       .  S
C351        O352   1.261       .  A
C351        C517   1.467       .  S
C353        C354   1.401   1_455  A
C353        C358   1.391       .  A
C353        H363   1.084   1_455  S
C354        C359   1.470       .  S
C354        C355   1.403   1_655  A
C355        C356   1.400       .  A
C355        H360   1.083       .  S
C356        C357   1.405       .  A
C356        H361   1.083       .  S
C357        C358   1.404       .  A
C358        H362   1.083       .  S
C359        C364   1.400       .  A
C359        C368   1.404       .  A
C364        C365   1.394       .  A
C364        H369   1.083       .  S
C365        C366   1.405       .  A
C365        H370   1.084       .  S
C366        C367   1.404       .  A
C367        C368   1.398       .  A
C367        H371   1.083       .  S
C368        H372   1.083       .  S
C373        C374   1.404       .  A
C373        C378   1.391       .  A
C373        H383   1.084       .  S
C374        C379   1.476       .  S
C374        C375   1.405       .  A
C375        C376   1.403       .  A
C375        H380   1.083       .  S
C376        C377   1.404       .  A
C376        H381   1.083       .  S
C377        C378   1.400       .  A
C378        H382   1.084       .  S
C379        C384   1.401       .  A
C379        C388   1.406       .  A
C384        C385   1.391       .  A
C384        H389   1.084       .  S
C385        C386   1.405       .  A
C385        H390   1.084       .  S
C386        C387   1.405       .  A
C387        C388   1.403       .  A
C387        H391   1.083       .  S
C388        H392   1.083       .  S
C393        C394   1.406       .  A
C393        C398   1.398       .  A
C393        H403   1.083       .  S
C394        C399   1.490       .  S
C394        C395   1.407       .  A
C395        C396   1.401       .  A
C395        H400   1.083       .  S
C396        C397   1.406       .  A
C396        H401   1.083       .  S
C397        C398   1.406       .  A
C398        H402   1.083       .  S
C399        C404   1.407       .  A
C399        C408   1.406       .  A
C404        C405   1.398       .  A
C404        H409   1.083       .  S
C405        C406   1.406       .  A
C405        H410   1.083       .  S
C406        C407   1.407       .  A
C407        C408   1.401       .  A
C407        H411   1.083       .  S
C408        H412   1.083       .  S
C413        C414   1.404       .  A
C413        C418   1.394       .  A
C413        H423   1.084       .  S
C414        C419   1.478       .  S
C414        C415   1.403       .  A
C415        C416   1.403       .  A
C415        H420   1.083       .  S
C416        C417   1.409       .  A
C416        H421   1.083       .  S
C417        C418   1.404       .  A
C418        H422   1.083       .  S
C419        C424   1.402       .  A
C419        C428   1.406       .  A
C424        C425   1.392       .  A
C424        H429   1.084       .  S
C425        C426   1.401       .  A
C425        H430   1.084       .  S
C426        C427   1.404       .  A
C427        C428   1.405       .  A
C427        H431   1.083       .  S
C428        H432   1.083       .  S
C433        C434   1.402   1_545  A
C433        C438   1.403       .  A
C433        H443   1.083       .  S
C434        C439   1.476       .  S
C434        C435   1.403       .  A
C435        C436   1.392   1_565  A
C435        H440   1.084       .  S
C436        C437   1.404       .  A
C436        H441   1.083       .  S
C437        C438   1.409       .  A
C438        H442   1.083       .  S
C439        C444   1.406       .  A
C439        C448   1.400       .  A
C444        C445   1.407       .  A
C444        H449   1.083       .  S
C445        C446   1.406       .  A
C445        H450   1.083       .  S
C446        C447   1.403       .  A
C447        C448   1.388       .  A
C447        H451   1.084       .  S
C448        H452   1.084       .  S
C453        C454   1.408       .  A
C453        C458   1.401       .  A
C453        H463   1.082   1_545  S
C454        C459   1.499   1_445  S
C454        C455   1.409       .  A
C455        C456   1.404       .  A
C455        H460   1.082   1_455  S
C456        C457   1.408       .  A
C456        H461   1.083       .  S
C457        C458   1.406       .  A
C458        H462   1.083       .  S
C459        C464   1.408   1_655  A
C459        C468   1.409       .  A
C464        C465   1.400   1_455  A
C464        H469   1.082       .  S
C465        C466   1.406       .  A
C465        H470   1.083       .  S
C466        C467   1.407       .  A
C467        C468   1.404       .  A
C467        H471   1.083       .  S
C468        H472   1.082   1_565  S
C473        C474   1.408       .  A
C473        C478   1.402   1_455  A
C473        H483   1.083       .  S
C474        C479   1.480       .  S
C474        C475   1.403       .  A
C475        C476   1.391   1_455  A
C475        H480   1.083       .  S
C476        C477   1.404       .  A
C476        H481   1.084       .  S
C477        C478   1.402       .  A
C478        H482   1.083       .  S
C479        C484   1.407       .  A
C479        C488   1.403       .  A
C484        C485   1.399       .  A
C484        H489   1.083       .  S
C485        C486   1.403       .  A
C485        H490   1.083       .  S
C486        C487   1.405       .  A
C487        C488   1.394       .  A
C487        H491   1.084       .  S
C488        H492   1.083       .  S
C493        C494   1.406       .  A
C493        C498   1.403       .  A
C493        H503   1.083       .  S
C494        C499   1.474       .  S
C494        C495   1.400       .  A
C495        C496   1.389       .  A
C495        H500   1.083       .  S
C496        C497   1.405       .  A
C496        H501   1.083       .  S
C497        C498   1.405       .  A
C498        H502   1.083       .  S
C499        C504   1.405       .  A
C499        C508   1.402       .  A
C504        C505   1.396       .  A
C504        H509   1.083       .  S
C505        C506   1.403       .  A
C505        H510   1.083       .  S
C506        C507   1.405       .  A
C507        C508   1.396       .  A
C507        H511   1.084       .  S
C508        H512   1.083       .  S
C513        C514   1.408       .  A
C513        C518   1.404       .  A
C513        H523   1.082       .  S
C514        C519   1.487       .  S
C514        C515   1.406       .  A
C515        C516   1.394       .  A
C515        H520   1.083       .  S
C516        C517   1.400       .  A
C516        H521   1.083       .  S
C517        C518   1.403       .  A
C518        H522   1.084       .  S
C519        C524   1.406   1_545  A
C519        C528   1.406       .  A
C524        C525   1.404       .  A
C524        H529   1.083       .  S
C525        C526   1.407       .  A
C525        H530   1.083       .  S
C526        C527   1.403       .  A
C527        C528   1.393   1_565  A
C527        H531   1.083       .  S
C528        H532   1.083       .  S
C533        C534   1.409       .  A
C533        C538   1.407       .  A
C533        H543   1.082       .  S
C534        C539   1.487       .  S
C534        C535   1.403       .  A
C535        C536   1.392       .  A
C535        H540   1.083       .  S
C536        C537   1.403       .  A
C536        H541   1.084       .  S
C537        C538   1.403       .  A
C538        H542   1.083       .  S
C539        C544   1.404       .  A
C539        C548   1.407       .  A
C544        C545   1.403       .  A
C544        H549   1.083       .  S
C545        C546   1.408       .  A
C545        H550   1.083       .  S
C546        C547   1.404       .  A
C547        C548   1.396       .  A
C547        H551   1.083       .  S
C548        H552   1.083       .  S
C553        C554   1.405       .  A
C553        C558   1.396       .  A
C553        H563   1.083       .  S
C554        C559   1.487       .  S
C554        C555   1.407       .  A
C555        C556   1.401       .  A
C555        H560   1.083       .  S
C556        C557   1.406       .  A
C556        H561   1.083       .  S
C557        C558   1.406       .  A
C558        H562   1.083       .  S
C559        C564   1.405       .  A
C559        C568   1.407       .  A
C564        C565   1.398       .  A
C564        H569   1.083       .  S
C565        C566   1.406       .  A
C565        H570   1.083       .  S
C566        C567   1.405       .  A
C567        C568   1.399       .  A
C567        H571   1.083       .  S
C568        H572   1.083       .  S
C573        C574   1.408       .  A
C573        C578   1.407       .  A
C573        H583   1.083       .  S
C574        C579   1.481       .  S
C574        C575   1.402       .  A
C575        C576   1.390       .  A
C575        H580   1.084       .  S
C576        C577   1.403       .  A
C576        H581   1.084       .  S
C577        C578   1.404       .  A
C578        H582   1.083       .  S
C579        C584   1.403       .  A
C579        C588   1.405       .  A
C584        C585   1.402       .  A
C584        H589   1.083       .  S
C585        C586   1.409       .  A
C585        H590   1.083       .  S
C586        C587   1.404       .  A
C587        C588   1.394       .  A
C587        H591   1.083       .  S
C588        H592   1.083       .  S
C593        C594   1.407       .  A
C593        C598   1.406       .  A
C593        H603   1.083       .  S
C594        C599   1.480       .  S
C594        C595   1.403       .  A
C595        C596   1.389       .  A
C595        H600   1.084       .  S
C596        C597   1.401       .  A
C596        H601   1.084       .  S
C597        C598   1.404       .  A
C598        H602   1.083       .  S
C599        C604   1.404   1_565  A
C599        C608   1.404       .  A
C604        C605   1.404       .  A
C604        H609   1.083       .  S
C605        C606   1.409       .  A
C605        H610   1.083       .  S
C606        C607   1.404       .  A
C607        C608   1.391   1_545  A
C607        H611   1.083       .  S
C608        H612   1.084       .  S
C613        C614   1.410       .  A
C613        C618   1.400       .  A
C613        H623   1.082       .  S
C614        C619   1.498       .  S
C614        C615   1.411       .  A
C615        C616   1.398       .  A
C615        H620   1.082       .  S
C616        C617   1.401       .  A
C616        H621   1.083       .  S
C617        C618   1.402       .  A
C618        H622   1.084       .  S
C619        C624   1.411       .  A
C619        C628   1.410       .  A
C624        C625   1.399       .  A
C624        H629   1.082       .  S
C625        C626   1.401       .  A
C625        H630   1.083       .  S
C626        C627   1.402       .  A
C627        C628   1.399       .  A
C627        H631   1.084       .  S
C628        H632   1.082       .  S
C633        C634   1.407       .  A
C633        C638   1.400       .  A
C633        H643   1.083   1_565  S
C634        C639   1.491   1_565  S
C634        C635   1.406       .  A
C635        C636   1.400       .  A
C635        H640   1.083       .  S
C636        C637   1.407       .  A
C636        H641   1.083       .  S
C637        C638   1.406       .  A
C638        H642   1.083       .  S
C639        C644   1.406       .  A
C639        C648   1.407       .  A
C644        C645   1.399       .  A
C644        H649   1.083       .  S
C645        C646   1.406       .  A
C645        H650   1.083       .  S
C646        C647   1.407       .  A
C647        C648   1.402       .  A
C647        H651   1.083       .  S
C648        H652   1.083   1_545  S
C653        C654   1.407       .  A
C653        C658   1.398       .  A
C653        H663   1.083       .  S
C654        C659   1.477       .  S
C654        C655   1.402       .  A
C655        C656   1.395       .  A
C655        H660   1.083       .  S
C656        C657   1.406       .  A
C656        H661   1.084       .  S
C657        C658   1.402       .  A
C658        H662   1.083       .  S
C659        C664   1.407       .  A
C659        C668   1.402       .  A
C664        C665   1.402       .  A
C664        H669   1.083       .  S
C665        C666   1.404       .  A
C665        H670   1.083       .  S
C666        C667   1.404       .  A
C667        C668   1.390       .  A
C667        H671   1.084       .  S
C668        H672   1.083       .  S
C673        C674   1.403       .  A
C673        C678   1.395       .  A
C673        H683   1.083       .  S
C674        C679   1.482       .  S
C674        C675   1.408       .  A
C675        C676   1.398       .  A
C675        H680   1.083       .  S
C676        C677   1.403       .  A
C676        H681   1.083       .  S
C677        C678   1.406       .  A
C678        H682   1.083       .  S
C679        C684   1.403   1_655  A
C679        C688   1.409   1_655  A
C684        C685   1.390       .  A
C684        H689   1.083   1_455  S
C685        C686   1.402       .  A
C685        H690   1.084       .  S
C686        C687   1.403       .  A
C687        C688   1.403       .  A
C687        H691   1.083       .  S
C688        H692   1.083       .  S
C693        C694   1.406       .  A
C693        C698   1.398       .  A
C693        H703   1.083       .  S
C694        C699   1.487   1_455  S
C694        C695   1.406       .  A
C695        C696   1.398       .  A
C695        H700   1.083   1_455  S
C696        C697   1.406       .  A
C696        H701   1.083       .  S
C697        C698   1.405       .  A
C698        H702   1.083       .  S
C699        C704   1.407   1_655  A
C699        C708   1.405       .  A
C704        C705   1.399   1_455  A
C704        H709   1.083       .  S
C705        C706   1.405       .  A
C705        H710   1.083       .  S
C706        C707   1.406       .  A
C707        C708   1.398       .  A
C707        H711   1.083       .  S
C708        H712   1.083       .  S
C713        C714   1.404   1_655  A
C713        C718   1.402       .  A
C713        H723   1.083       .  S
C714        C719   1.472       .  S
C714        C715   1.402       .  A
C715        C716   1.389   1_455  A
C715        H720   1.084       .  S
C716        C717   1.402       .  A
C716        H721   1.084       .  S
C717        C718   1.404       .  A
C718        H722   1.083       .  S
C719        C724   1.405       .  A
C719        C728   1.400       .  A
C724        C725   1.401       .  A
C724        H729   1.083       .  S
C725        C726   1.404       .  A
C725        H730   1.083       .  S
C726        C727   1.406       .  A
C727        C728   1.390       .  A
C727        H731   1.084       .  S
C728        H732   1.084       .  S
C733        C734   1.404       .  A
C733        C738   1.396       .  A
C733        H743   1.084       .  S
C734        C739   1.469       .  S
C734        C735   1.401       .  A
C735        C736   1.394       .  A
C735        H740   1.083       .  S
C736        C737   1.404       .  A
C736        H741   1.084       .  S
C737        C738   1.403       .  A
C738        H742   1.083       .  S
C739        C744   1.403       .  A
C739        C748   1.399       .  A
C744        C745   1.401       .  A
C744        H749   1.083       .  S
C745        C746   1.406       .  A
C745        H750   1.083       .  S
C746        C747   1.405       .  A
C747        C748   1.389       .  A
C747        H751   1.083       .  S
C748        H752   1.084       .  S
C753        C754   1.406       .  A
C753        C758   1.394   1_545  A
C753        H763   1.083       .  S
C754        C759   1.480       .  S
C754        C755   1.402   1_545  A
C755        C756   1.401       .  A
C755        H760   1.083       .  S
C756        C757   1.409       .  A
C756        H761   1.083       .  S
C757        C758   1.403       .  A
C758        H762   1.083       .  S
C759        C764   1.401       .  A
C759        C768   1.408       .  A
C764        C765   1.388       .  A
C764        H769   1.084       .  S
C765        C766   1.403       .  A
C765        H770   1.083       .  S
C766        C767   1.405       .  A
C767        C768   1.407       .  A
C767        H771   1.083       .  S
C768        H772   1.082       .  S
C773        C774   1.401       .  A
C773        C778   1.389       .  A
C773        H783   1.084       .  S
C774        C779   1.480       .  S
C774        C775   1.408       .  A
C775        C776   1.406       .  A
C775        H780   1.083       .  S
C776        C777   1.403       .  A
C776        H781   1.083       .  S
C777        C778   1.403       .  A
C778        H782   1.084       .  S
C779        C784   1.406       .  A
C779        C788   1.402       .  A
C784        C785   1.394       .  A
C784        H789   1.083       .  S
C785        C786   1.403       .  A
C785        H790   1.083       .  S
C786        C787   1.409       .  A
C787        C788   1.401       .  A
C787        H791   1.083       .  S
C788        H792   1.083       .  S
C793        C794   1.407   1_455  A
C793        C798   1.399   1_455  A
C793        H803   1.083       .  S
C794        C799   1.495   1_655  S
C794        C795   1.408       .  A
C795        C796   1.403       .  A
C795        H800   1.083       .  S
C796        C797   1.407       .  A
C796        H801   1.083       .  S
C797        C798   1.407       .  A
C798        H802   1.083       .  S
C799        C804   1.408       .  A
C799        C808   1.407       .  A
C804        C805   1.401       .  A
C804        H809   1.083       .  S
C805        C806   1.406       .  A
C805        H810   1.083       .  S
C806        C807   1.407       .  A
C807        C808   1.401       .  A
C807        H811   1.083       .  S
C808        H812   1.083   1_455  S
C813        C814   1.402       .  A
C813        C818   1.391       .  A
C813        H823   1.084       .  S
C814        C819   1.480       .  S
C814        C815   1.405       .  A
C815        C816   1.404       .  A
C815        H820   1.083       .  S
C816        C817   1.408       .  A
C816        H821   1.083       .  S
C817        C818   1.405       .  A
C818        H822   1.083       .  S
C819        C824   1.405       .  A
C819        C828   1.402       .  A
C824        C825   1.405       .  A
C824        H829   1.083       .  S
C825        C826   1.407       .  A
C825        H830   1.083       .  S
C826        C827   1.406       .  A
C827        C828   1.391       .  A
C827        H831   1.083       .  S
C828        H832   1.084       .  S
C833        C834   1.401       .  A
C833        C838   1.390   1_454  A
C833        H843   1.083       .  S
C834        C839   1.475       .  S
C834        C835   1.406   1_455  A
C835        C836   1.403       .  A
C835        H840   1.083   1_655  S
C836        C837   1.405   1_554  A
C836        H841   1.083       .  S
C837        C838   1.403       .  A
C838        H842   1.084       .  S
C839        C844   1.401       .  A
C839        C848   1.406       .  A
C844        C845   1.395       .  A
C844        H849   1.083       .  S
C845        C846   1.407       .  A
C845        H850   1.084       .  S
C846        C847   1.403       .  A
C847        C848   1.398       .  A
C847        H851   1.083       .  S
C848        H852   1.083       .  S
C853        C854   1.401       .  A
C853        C858   1.389   1_556  A
C853        H863   1.083       .  S
C854        C859   1.479       .  S
C854        C855   1.408       .  A
C855        C856   1.404       .  A
C855        H860   1.083       .  S
C856        C857   1.403   1_556  A
C856        H861   1.083       .  S
C857        C858   1.404       .  A
C858        H862   1.084       .  S
C859        C864   1.402       .  A
C859        C868   1.407       .  A
C864        C865   1.396       .  A
C864        H869   1.083       .  S
C865        C866   1.406       .  A
C865        H870   1.084       .  S
C866        C867   1.403       .  A
C867        C868   1.398       .  A
C867        H871   1.083       .  S
C868        H872   1.083       .  S
C873        C874   1.402       .  A
C873        C878   1.390       .  A
C873        H883   1.084       .  S
C874        C879   1.479       .  S
C874        C875   1.407       .  A
C875        C876   1.407       .  A
C875        H880   1.083       .  S
C876        C877   1.405       .  A
C876        H881   1.083       .  S
C877        C878   1.402       .  A
C878        H882   1.084       .  S
C879        C884   1.403   1_554  A
C879        C888   1.403       .  A
C884        C885   1.392       .  A
C884        H889   1.084       .  S
C885        C886   1.405       .  A
C885        H890   1.083       .  S
C886        C887   1.409   1_556  A
C887        C888   1.404       .  A
C887        H891   1.083       .  S
C888        H892   1.083       .  S
C893        C894   1.404       .  A
C893        C898   1.396       .  A
C893        H903   1.083       .  S
C894        C899   1.482       .  S
C894        C895   1.407       .  A
C895        C896   1.400       .  A
C895        H900   1.083       .  S
C896        C897   1.400       .  A
C896        H901   1.083       .  S
C897        C898   1.400       .  A
C898        H902   1.082       .  S
C899        C904   1.403   1_545  A
C899        C908   1.407   1_556  A
C904        C905   1.398       .  A
C904        H909   1.083       .  S
C905        C906   1.406   1_556  A
C905        H910   1.083       .  S
C906        C907   1.403       .  A
C907        C908   1.398   1_565  A
C907        H911   1.083       .  S
C908        H912   1.083       .  S
C913        C914   1.403       .  A
C913        C918   1.403       .  A
C913        H923   1.083       .  S
C914        C919   1.474       .  S
C914        C915   1.400       .  A
C915        C916   1.395       .  A
C915        H920   1.084       .  S
C916        C917   1.406       .  A
C916        H921   1.083       .  S
C917        C918   1.408       .  A
C918        H922   1.083       .  S
C919        C924   1.400       .  A
C919        C928   1.403       .  A
C924        C925   1.395       .  A
C924        H929   1.084       .  S
C925        C926   1.407       .  A
C925        H930   1.083       .  S
C926        C927   1.407       .  A
C927        C928   1.403       .  A
C927        H931   1.083       .  S
C928        H932   1.083       .  S
C933        C934   1.408       .  A
C933        C938   1.403       .  A
C933        H943   1.082   1_565  S
C934        C939   1.494   1_565  S
C934        C935   1.407       .  A
C935        C936   1.398       .  A
C935        H940   1.083       .  S
C936        C937   1.406       .  A
C936        H941   1.083       .  S
C937        C938   1.407       .  A
C938        H942   1.083       .  S
C939        C944   1.407       .  A
C939        C948   1.408       .  A
C944        C945   1.401       .  A
C944        H949   1.083       .  S
C945        C946   1.407       .  A
C945        H950   1.083       .  S
C946        C947   1.405       .  A
C947        C948   1.400       .  A
C947        H951   1.083       .  S
C948        H952   1.082   1_545  S
C953        C954   1.402       .  A
C953        C958   1.390   1_556  A
C953        H963   1.083       .  S
C954        C959   1.477       .  S
C954        C955   1.408       .  A
C955        C956   1.400       .  A
C955        H960   1.083       .  S
C956        C957   1.401   1_556  A
C956        H961   1.083       .  S
C957        C958   1.402       .  A
C958        H962   1.084       .  S
C959        C964   1.401       .  A
C959        C968   1.407       .  A
C964        C965   1.391       .  A
C964        H969   1.083       .  S
C965        C966   1.406       .  A
C965        H970   1.082       .  S
C966        C967   1.403       .  A
C967        C968   1.399       .  A
C967        H971   1.083       .  S
C968        H972   1.083       .  S
C973        C974   1.406       .  A
C973        C978   1.399       .  A
C973        H983   1.083       .  S
C974        C979   1.477       .  S
C974        C975   1.403       .  A
C975        C976   1.394       .  A
C975        H980   1.083       .  S
C976        C977   1.404       .  A
C976        H981   1.084       .  S
C977        C978   1.403       .  A
C978        H982   1.083       .  S
C979        C984   1.405   1_655  A
C979        C988   1.403   1_655  A
C984        C985   1.399       .  A
C984        H989   1.083       .  S
C985        C986   1.404   1_554  A
C985        H990   1.083       .  S
C986        C987   1.404       .  A
C987        C988   1.393   1_556  A
C987        H991   1.083       .  S
C988        H992   1.083   1_454  S
C993        C994   1.402       .  A
C993        C998   1.393       .  A
C993       H1003   1.084   1_556  S
C994        C999   1.481       .  S
C994        C995   1.407       .  A
C995        C996   1.406       .  A
C995       H1000   1.083       .  S
C996        C997   1.404       .  A
C996       H1001   1.083       .  S
C997        C998   1.402       .  A
C998       H1002   1.084       .  S
C999       C1004   1.404   1_556  A
C999       C1008   1.403   1_565  A
C1004      C1005   1.395   1_565  A
C1004      H1009   1.083       .  S
C1005      C1006   1.405       .  A
C1005      H1010   1.083       .  S
C1006      C1007   1.409   1_554  A
C1007      C1008   1.404       .  A
C1007      H1011   1.083       .  S
C1008      H1012   1.083       .  S
C1013      C1014   1.403       .  A
C1013      C1018   1.390       .  A
C1013      H1023   1.083       .  S
C1014      C1019   1.478       .  S
C1014      C1015   1.407       .  A
C1015      C1016   1.404       .  A
C1015      H1020   1.083       .  S
C1016      C1017   1.403       .  A
C1016      H1021   1.083       .  S
C1017      C1018   1.400       .  A
C1018      H1022   1.084       .  S
C1019      C1024   1.404   1_554  A
C1019      C1028   1.403       .  A
C1024      C1025   1.392       .  A
C1024      H1029   1.084       .  S
C1025      C1026   1.403       .  A
C1025      H1030   1.083       .  S
C1026      C1027   1.409   1_556  A
C1027      C1028   1.402       .  A
C1027      H1031   1.083       .  S
C1028      H1032   1.083       .  S
C1033      C1034   1.412       .  A
C1033      C1038   1.400       .  A
C1033      H1043   1.081       .  S
C1034      C1039   1.501       .  S
C1034      C1035   1.411       .  A
C1035      C1036   1.397       .  A
C1035      H1040   1.081       .  S
C1036      C1037   1.400       .  A
C1036      H1041   1.083       .  S
C1037      C1038   1.402       .  A
C1038      H1042   1.083       .  S
C1039      C1044   1.411       .  A
C1039      C1048   1.412       .  A
C1044      C1045   1.399       .  A
C1044      H1049   1.081       .  S
C1045      C1046   1.401       .  A
C1045      H1050   1.083       .  S
C1046      C1047   1.401       .  A
C1047      C1048   1.399       .  A
C1047      H1051   1.084       .  S
C1048      H1052   1.081       .  S
C1053      C1054   1.406       .  A
C1053      C1058   1.401       .  A
C1053      H1063   1.083       .  S
C1054      C1059   1.487       .  S
C1054      C1055   1.405       .  A
C1055      C1056   1.397       .  A
C1055      H1060   1.083       .  S
C1056      C1057   1.405       .  A
C1056      H1061   1.083       .  S
C1057      C1058   1.406       .  A
C1058      H1062   1.083       .  S
C1059      C1064   1.406       .  A
C1059      C1068   1.405       .  A
C1064      C1065   1.399       .  A
C1064      H1069   1.083       .  S
C1065      C1066   1.405       .  A
C1065      H1070   1.083       .  S
C1066      C1067   1.407       .  A
C1067      C1068   1.398       .  A
C1067      H1071   1.083       .  S
C1068      H1072   1.083       .  S
C1073      C1074   1.407       .  A
C1073      C1078   1.399       .  A
C1073      H1083   1.083       .  S
C1074      C1079   1.494       .  S
C1074      C1075   1.408       .  A
C1075      C1076   1.402       .  A
C1075      H1080   1.082       .  S
C1076      C1077   1.407       .  A
C1076      H1081   1.083       .  S
C1077      C1078   1.406       .  A
C1078      H1082   1.083       .  S
C1079      C1084   1.407       .  A
C1079      C1088   1.408       .  A
C1084      C1085   1.398       .  A
C1084      H1089   1.083       .  S
C1085      C1086   1.406       .  A
C1085      H1090   1.083       .  S
C1086      C1087   1.407       .  A
C1087      C1088   1.403       .  A
C1087      H1091   1.083       .  S
C1088      H1092   1.083       .  S
C1093      C1094   1.402       .  A
C1093      C1098   1.393       .  A
C1093      H1103   1.084       .  S
C1094      C1099   1.481       .  S
C1094      C1095   1.405       .  A
C1095      C1096   1.404       .  A
C1095      H1100   1.083       .  S
C1096      C1097   1.407       .  A
C1096      H1101   1.083       .  S
C1097      C1098   1.406       .  A
C1098      H1102   1.083       .  S
C1099      C1104   1.405       .  A
C1099      C1108   1.403       .  A
C1104      C1105   1.404       .  A
C1104      H1109   1.083       .  S
C1105      C1106   1.408       .  A
C1105      H1110   1.083       .  S
C1106      C1107   1.406       .  A
C1107      C1108   1.393       .  A
C1107      H1111   1.083       .  S
C1108      H1112   1.083       .  S
C1113      C1114   1.402       .  A
C1113      C1118   1.393       .  A
C1113      H1123   1.083       .  S
C1114      C1119   1.476       .  S
C1114      C1115   1.406       .  A
C1115      C1116   1.397       .  A
C1115      H1120   1.083       .  S
C1116      C1117   1.403       .  A
C1116      H1121   1.083       .  S
C1117      C1118   1.406       .  A
C1118      H1122   1.084       .  S
C1119      C1124   1.402   1_655  A
C1119      C1128   1.408   1_655  A
C1124      C1125   1.390       .  A
C1124      H1129   1.083   1_455  S
C1125      C1126   1.401       .  A
C1125      H1130   1.084       .  S
C1126      C1127   1.401       .  A
C1127      C1128   1.400       .  A
C1127      H1131   1.083       .  S
C1128      H1132   1.083   1_455  S
C1133      C1134   1.405       .  A
C1133      C1138   1.397       .  A
C1133      H1143   1.083       .  S
C1134      C1139   1.472       .  S
C1134      C1135   1.401       .  A
C1135      C1136   1.393       .  A
C1135      H1140   1.083       .  S
C1136      C1137   1.405       .  A
C1136      H1141   1.084       .  S
C1137      C1138   1.402       .  A
C1138      H1142   1.083       .  S
C1139      C1144   1.405       .  A
C1139      C1148   1.401       .  A
C1144      C1145   1.400       .  A
C1144      H1149   1.083       .  S
C1145      C1146   1.404       .  A
C1145      H1150   1.083       .  S
C1146      C1147   1.403       .  A
C1147      C1148   1.390       .  A
C1147      H1151   1.084       .  S
C1148      H1152   1.083       .  S
C1153      C1154   1.407       .  A
C1153      C1158   1.406       .  A
C1153      H1163   1.083       .  S
C1154      C1159   1.477       .  S
C1154      C1155   1.401       .  A
C1155      C1156   1.387       .  A
C1155      H1160   1.084       .  S
C1156      C1157   1.402       .  A
C1156      H1161   1.084       .  S
C1157      C1158   1.405       .  A
C1158      H1162   1.083       .  S
C1159      C1164   1.402       .  A
C1159      C1168   1.405       .  A
C1164      C1165   1.401       .  A
C1164      H1169   1.083       .  S
C1165      C1166   1.409       .  A
C1165      H1170   1.083       .  S
C1166      C1167   1.403       .  A
C1167      C1168   1.393       .  A
C1167      H1171   1.083       .  S
C1168      H1172   1.084       .  S
C1173      C1174   1.401       .  A
C1173      C1178   1.390       .  A
C1173      H1183   1.084       .  S
C1174      C1179   1.483       .  S
C1174      C1175   1.409       .  A
C1175      C1176   1.407       .  A
C1175      H1180   1.083       .  S
C1176      C1177   1.404       .  A
C1176      H1181   1.083       .  S
C1177      C1178   1.404       .  A
C1178      H1182   1.084       .  S
C1179      C1184   1.407       .  A
C1179      C1188   1.402   1_545  A
C1184      C1185   1.396   1_545  A
C1184      H1189   1.083       .  S
C1185      C1186   1.404       .  A
C1185      H1190   1.083       .  S
C1186      C1187   1.409       .  A
C1187      C1188   1.401       .  A
C1187      H1191   1.083       .  S
C1188      H1192   1.083       .  S
C1193      C1194   1.402       .  A
C1193      C1198   1.393       .  A
C1193      H1203   1.084       .  S
C1194      C1199   1.479       .  S
C1194      C1195   1.404       .  A
C1195      C1196   1.404       .  A
C1195      H1200   1.083       .  S
C1196      C1197   1.408       .  A
C1196      H1201   1.083       .  S
C1197      C1198   1.406       .  A
C1198      H1202   1.083       .  S
C1199      C1204   1.405       .  A
C1199      C1208   1.401       .  A
C1204      C1205   1.405       .  A
C1204      H1209   1.083       .  S
C1205      C1206   1.408       .  A
C1205      H1210   1.083       .  S
C1206      C1207   1.406       .  A
C1207      C1208   1.392       .  A
C1207      H1211   1.083       .  S
C1208      H1212   1.084       .  S
C1213      C1214   1.406   1_455  A
C1213      C1218   1.396   1_455  A
C1213      H1223   1.083       .  S
C1214      C1219   1.485   1_645  S
C1214      C1215   1.405       .  A
C1215      C1216   1.398       .  A
C1215      H1220   1.083   1_545  S
C1216      C1217   1.406       .  A
C1216      H1221   1.083       .  S
C1217      C1218   1.405       .  A
C1218      H1222   1.083       .  S
C1219      C1224   1.405       .  A
C1219      C1228   1.406       .  A
C1224      C1225   1.396       .  A
C1224      H1229   1.083   1_565  S
C1225      C1226   1.406       .  A
C1225      H1230   1.083       .  S
C1226      C1227   1.405       .  A
C1227      C1228   1.398       .  A
C1227      H1231   1.083       .  S
C1228      H1232   1.083   1_455  S
C1233      C1234   1.405   1_545  A
C1233      C1238   1.404       .  A
C1233      H1243   1.083       .  S
C1234      C1239   1.487       .  S
C1234      C1235   1.406       .  A
C1235      C1236   1.395   1_565  A
C1235      H1240   1.083       .  S
C1236      C1237   1.404       .  A
C1236      H1241   1.083       .  S
C1237      C1238   1.409       .  A
C1238      H1242   1.083       .  S
C1239      C1244   1.409       .  A
C1239      C1248   1.404       .  A
C1244      C1245   1.407       .  A
C1244      H1249   1.083       .  S
C1245      C1246   1.404       .  A
C1245      H1250   1.083       .  S
C1246      C1247   1.402       .  A
C1247      C1248   1.392       .  A
C1247      H1251   1.084       .  S
C1248      H1252   1.083       .  S
C1253      C1254   1.402       .  A
C1253      C1258   1.389       .  A
C1253      H1263   1.084       .  S
C1254      C1259   1.479       .  S
C1254      C1255   1.407       .  A
C1255      C1256   1.405       .  A
C1255      H1260   1.083       .  S
C1256      C1257   1.404       .  A
C1256      H1261   1.083       .  S
C1257      C1258   1.402       .  A
C1258      H1262   1.084       .  S
C1259      C1264   1.404       .  A
C1259      C1268   1.403       .  A
C1264      C1265   1.393       .  A
C1264      H1269   1.084       .  S
C1265      C1266   1.404       .  A
C1265      H1270   1.083       .  S
C1266      C1267   1.409       .  A
C1267      C1268   1.402       .  A
C1267      H1271   1.083       .  S
C1268      H1272   1.083       .  S
C1273      C1274   1.403       .  A
C1273      C1278   1.391   1_455  A
C1273      H1283   1.083       .  S
C1274      C1279   1.480       .  S
C1274      C1275   1.409       .  A
C1275      C1276   1.401   1_455  A
C1275      H1280   1.083       .  S
C1276      C1277   1.401       .  A
C1276      H1281   1.083       .  S
C1277      C1278   1.403       .  A
C1278      H1282   1.084       .  S
C1279      C1284   1.403       .  A
C1279      C1288   1.408       .  A
C1284      C1285   1.393       .  A
C1284      H1289   1.083       .  S
C1285      C1286   1.405       .  A
C1285      H1290   1.084       .  S
C1286      C1287   1.403       .  A
C1287      C1288   1.399       .  A
C1287      H1291   1.083       .  S
C1288      H1292   1.083       .  S
C1293      C1294   1.406       .  A
C1293      C1298   1.399       .  A
C1293      H1303   1.083       .  S
C1294      C1299   1.474       .  S
C1294      C1295   1.402       .  A
C1295      C1296   1.391       .  A
C1295      H1300   1.083       .  S
C1296      C1297   1.403       .  A
C1296      H1301   1.084       .  S
C1297      C1298   1.402       .  A
C1298      H1302   1.083       .  S
C1299      C1304   1.406       .  A
C1299      C1308   1.401       .  A
C1304      C1305   1.398       .  A
C1304      H1309   1.083       .  S
C1305      C1306   1.403       .  A
C1305      H1310   1.083       .  S
C1306      C1307   1.405       .  A
C1307      C1308   1.392       .  A
C1307      H1311   1.084       .  S
C1308      H1312   1.083       .  S
