geometry optimzed in LAMMPS
_audit_creation_date              2020-12-01 
_audit_creation_method            'lammps2cif' 
_symmetry_space_group_name_H-M    'P1' 
_symmetry_Int_Tables_number       1 
_symmetry_cell_setting            triclinic 
loop_ 
_symmetry_equiv_pos_as_xyz 
  x,y,z 
_cell_length_a                    56.78982865 
_cell_length_b                    56.80866514537642 
_cell_length_c                    56.25624205342314 
_cell_angle_alpha                 90.2209452915127 
_cell_angle_beta                  89.81258469003382 
_cell_angle_gamma                 121.65602169420242 
loop_ 
_atom_site_label 
_atom_site_type_symbol 
_atom_site_fract_x 
_atom_site_fract_y 
_atom_site_fract_z 
_atom_site_charge 
O1          O  0.59199002  0.17600860  0.24889352    -0.83900
O2          O  0.64100236  0.18241033  0.26321474    -0.81000
C3          C  0.66196827  0.18025164  0.26328480     0.99500
O4          O  0.67240443  0.17898177  0.24379102    -0.81000
O5          O  0.63349114  0.12666126  0.22978822    -0.83600
C6          C  0.61087943  0.10655119  0.22245393     1.04100
O7          O  0.59646845  0.11065610  0.20779753    -0.76400
O8          O  0.57450030  0.13284429  0.23775897    -0.76600
C9          C  0.57416333  0.15052765  0.25118809     1.04000
O10         O  0.61866737  0.21068554  0.20899614    -0.83900
O11         O  0.66947996  0.22098174  0.22500535    -0.81000
C12         C  0.68156413  0.22035085  0.20626771     0.99600
O13         O  0.67415111  0.19783788  0.19590528    -0.81000
O14         O  0.63973702  0.14436364  0.18119309    -0.83600
C15         C  0.62638828  0.14917702  0.16607417     1.04000
O16         O  0.60756455  0.15312461  0.17305459    -0.76400
O17         O  0.58037991  0.17124387  0.20203928    -0.76600
C18         C  0.59384195  0.19746479  0.20201149     1.04000
Cr19       Cr  0.63008321  0.19550124  0.23523258     1.93700
Cr20       Cr  0.65289705  0.16231030  0.21299964     1.93200
Cr21       Cr  0.59216295  0.14361837  0.20582247     1.39100
O22         O  0.62499295  0.16722458  0.21801474    -1.21700
O23         O  0.78175879  0.24065841  0.42455435    -0.83900
O24         O  0.82462300  0.26402801  0.45706454    -0.81000
C25         C  0.84459334  0.27817167  0.44289549     0.99500
O26         O  0.84818786  0.30049695  0.43451211    -0.81000
O27         O  0.83510899  0.33877010  0.41825482    -0.83600
C28         C  0.82260977  0.32942174  0.39865923     1.04100
O29         O  0.79978664  0.30682264  0.39821351    -0.76400
O30         O  0.75623727  0.25664311  0.41155266    -0.76600
C31         C  0.76513808  0.24044876  0.40956700     1.04000
O32         O  0.74574080  0.24450232  0.45778266    -0.83900
O33         O  0.78996304  0.27396302  0.48851854    -0.81000
C34         C  0.81257845  0.29396447  0.49618866     0.99600
O35         O  0.83275682  0.30676762  0.48203541    -0.81000
O36         O  0.81479320  0.33985838  0.46518016    -0.83600
C37         C  0.79893427  0.34557563  0.45443450     1.04000
O38         O  0.78750779  0.33354018  0.43517933    -0.76400
O39         O  0.74648251  0.28276124  0.45115327    -0.76600
C40         C  0.73390200  0.25814946  0.45833790     1.04000
Cr41       Cr  0.78643481  0.25815545  0.45625496     1.93700
Cr42       Cr  0.83050841  0.31945600  0.44948066     1.93200
Cr43       Cr  0.77419174  0.29462363  0.42539126     1.39100
O44         O  0.79711485  0.29070962  0.44345827    -1.21700
O45         O  0.74367359  0.52854247  0.43223756    -0.83900
O46         O  0.72488296  0.55403063  0.46170488    -0.81000
C47         C  0.71042730  0.55877956  0.44759045     0.99500
O48         O  0.68713487  0.53914618  0.44076503    -0.81000
O49         O  0.64551616  0.48631723  0.42860659    -0.83600
C50         C  0.65396740  0.48250460  0.40900941     1.04100
O51         O  0.67466568  0.47985845  0.40860215    -0.76400
O52         O  0.72377451  0.48487770  0.42179407    -0.76600
C53         C  0.74226626  0.51004851  0.41873168     1.04000
O54         O  0.73680978  0.49059356  0.46912275    -0.83900
O55         O  0.71242835  0.51200751  0.49756827    -0.81000
C56         C  0.69459053  0.51736147  0.50454334     0.99600
O57         O  0.68185747  0.52296975  0.48945578    -0.81000
O58         O  0.64440835  0.46915571  0.47668334    -0.83600
C59         C  0.63664524  0.44584828  0.46765696     1.04000
O60         O  0.64745688  0.44381556  0.44865063    -0.76400
O61         O  0.69712737  0.45244021  0.46318507    -0.76600
C62         C  0.72172889  0.46445582  0.47041074     1.04000
Cr63       Cr  0.72696471  0.51971186  0.46451255     1.93700
Cr64       Cr  0.66674421  0.50391758  0.45845756     1.93200
Cr65       Cr  0.68623983  0.46751641  0.43673683     1.39100
O66         O  0.69336760  0.49702978  0.45313817    -1.21700
O67         O  0.55310614  0.40149745  0.26230513    -0.83900
O68         O  0.50559690  0.35315933  0.27431432    -0.81000
C69         C  0.48200914  0.33144997  0.27278651     0.99500
O70         O  0.47177630  0.32194038  0.25246781    -0.81000
O71         O  0.46261737  0.36144289  0.23330307    -0.83600
C72         C  0.46840565  0.38469886  0.22527512     1.04100
O73         O  0.48989262  0.39869117  0.21265190    -0.76400
O74         O  0.53093522  0.41994681  0.24698686    -0.76600
C75         C  0.54606297  0.41915853  0.26300881     1.04000
O76         O  0.56318485  0.37351091  0.22527028    -0.83900
O77         O  0.51847824  0.32395858  0.24032787    -0.81000
C78         C  0.50952881  0.31253772  0.22036650     0.99600
O79         O  0.49589916  0.31947027  0.20753065    -0.81000
O80         O  0.48070928  0.35400063  0.18760699    -0.83600
C81         C  0.50134786  0.36750514  0.17406563     1.04000
O82         O  0.52400406  0.38638579  0.18278610    -0.76400
O83         O  0.56627401  0.41227560  0.21551706    -0.76600
C84         C  0.57677174  0.39740340  0.21635728     1.04000
Cr85       Cr  0.53352395  0.36345999  0.24896964     1.93700
Cr86       Cr  0.48009060  0.34118713  0.22079088     1.93200
Cr87       Cr  0.52669536  0.40185757  0.21537101     1.39100
O88         O  0.51342456  0.36894333  0.22847492    -1.21700
O89         O  0.45481577  0.21961252  0.43001670    -0.83900
O90         O  0.42176228  0.16663582  0.44467240    -0.81000
C91         C  0.41427008  0.14153872  0.44358061     0.99500
O92         O  0.43128380  0.13387090  0.44732373    -0.81000
O93         O  0.46938503  0.14796463  0.41191117    -0.83600
C94         C  0.48993915  0.16198722  0.39870199     1.04100
O95         O  0.50805202  0.18626446  0.40457176    -0.76400
O96         O  0.47625865  0.21029350  0.40234600    -0.76600
C97         C  0.46033368  0.21863528  0.40816369     1.04000
O98         O  0.48746847  0.23054056  0.47373295    -0.83900
O99         O  0.45179437  0.17730712  0.48848203    -0.81000
C100        C  0.46353161  0.16489367  0.49573546     0.99600
O101        O  0.47582445  0.15772367  0.48156536    -0.81000
O102        O  0.51473734  0.17078362  0.44715755    -0.83600
C103        C  0.53495783  0.19560338  0.45014154     1.04000
O104        O  0.53179205  0.21573963  0.44684992    -0.76400
O105        O  0.50757933  0.24649318  0.43967007    -0.76600
C106        C  0.50381456  0.25068727  0.46093989     1.04000
Cr107      Cr  0.45568210  0.19771046  0.45819339     1.93700
Cr108      Cr  0.47305107  0.15514662  0.44674969     1.93200
Cr109      Cr  0.50376481  0.21271409  0.42485171     1.39100
O110        O  0.47721662  0.18821378  0.44354567    -1.21700
O111        O  0.82552441  0.45074756  0.26136438    -0.83900
O112        O  0.79806044  0.47827781  0.25551205    -0.81000
C113        C  0.81665193  0.50152731  0.26335883     0.99500
O114        O  0.83848766  0.51589212  0.25150796    -0.81000
O115        O  0.87952112  0.53022015  0.21792759    -0.83600
C116        C  0.89548961  0.52211391  0.22429641     1.04100
O117        O  0.88692235  0.49679566  0.22578217    -0.76400
O118        O  0.85076846  0.44270734  0.23677410    -0.76600
C119        C  0.84168417  0.44218418  0.25762846     1.04000
O120        O  0.79897137  0.41821913  0.22046708    -0.83900
O121        O  0.77876238  0.45140545  0.21066955    -0.81000
C122        C  0.77701921  0.47236494  0.20762249     0.99600
O123        O  0.79695336  0.49628706  0.21353887    -0.81000
O124        O  0.83783804  0.50715075  0.18179411    -0.83600
C125        C  0.85235441  0.50095397  0.16944355     1.04000
O126        O  0.86417864  0.48946407  0.17864920    -0.76400
O127        O  0.82623551  0.43577775  0.18977410    -0.76600
C128        C  0.80600372  0.41561000  0.19985469     1.04000
Cr129      Cr  0.80262037  0.45158310  0.23579892     1.93700
Cr130      Cr  0.83788953  0.50993296  0.21653174     1.93200
Cr131      Cr  0.85530181  0.46699203  0.20862009     1.39100
O132        O  0.83225114  0.47636393  0.22015421    -1.21700
O133        O  0.48873615  0.26316140  0.91640874    -0.83900
O134        O  0.49278525  0.31097442  0.90122712    -0.81000
C135        C  0.49318076  0.33334093  0.90118841     0.99500
O136        O  0.49372015  0.34479158  0.92074716    -0.81000
O137        O  0.44298959  0.30830538  0.94138940    -0.83600
C138        C  0.42400201  0.28565812  0.95006236     1.04100
O139        O  0.43007316  0.27190687  0.96377918    -0.76400
O140        O  0.44752931  0.24709156  0.93179826    -0.76600
C141        C  0.46303526  0.24586148  0.91631846     1.04000
O142        O  0.52890156  0.29373919  0.95206998    -0.83900
O143        O  0.53712290  0.34225974  0.93398758    -0.81000
C144        C  0.54085009  0.35511045  0.95332859     0.99600
O145        O  0.52031338  0.34964090  0.96620789    -0.81000
O146        O  0.46885433  0.31811992  0.98707394    -0.83600
C147        C  0.47452887  0.30497329  0.00169856     1.04000
O148        O  0.47699370  0.28529195  0.99435688    -0.76400
O149        O  0.49124595  0.25605621  0.96375408    -0.76600
C150        C  0.51737062  0.27014283  0.96146101     1.04000
Cr151      Cr  0.50990508  0.30230561  0.92746684     1.93700
Cr152      Cr  0.48167721  0.32814990  0.95344240     1.93200
Cr153      Cr  0.46299980  0.26744789  0.96251368     1.39100
O154        O  0.48468316  0.29915742  0.94774255    -1.21700
O155        O  0.57615500  0.46249860  0.74533114    -0.83900
O156        O  0.59954929  0.50622123  0.71378055    -0.81000
C157        C  0.61361309  0.52660499  0.72762769     0.99500
O158        O  0.63651218  0.53139048  0.73570237    -0.81000
O159        O  0.67645148  0.52086276  0.75157302    -0.83600
C160        C  0.66716933  0.51028868  0.77170763     1.04100
O161        O  0.64475978  0.48728092  0.77331095    -0.76400
O162        O  0.59513270  0.44086438  0.76096554    -0.76600
C163        C  0.57662080  0.44683118  0.76094080     1.04000
O164        O  0.58399363  0.42895029  0.71249041    -0.83900
O165        O  0.61182955  0.47312508  0.68219313    -0.81000
C166        C  0.63080462  0.49620452  0.67446694     0.99600
O167        O  0.64297879  0.51630416  0.68864572    -0.81000
O168        O  0.67716652  0.49903867  0.70577973    -0.83600
C169        C  0.68395949  0.48469425  0.71774398     1.04000
O170        O  0.67206662  0.47408342  0.73728070    -0.76400
O171        O  0.62176483  0.43035025  0.72290148    -0.76600
C172        C  0.59796378  0.41750959  0.71372491     1.04000
Cr173      Cr  0.59537939  0.46878837  0.71427763     1.93700
Cr174      Cr  0.65618003  0.51450875  0.72092558     1.93200
Cr175      Cr  0.63302200  0.45977757  0.74716986     1.39100
O176        O  0.62800690  0.48092437  0.72767170    -1.21700
O177        O  0.54613321  0.14008926  0.73420276    -0.83900
O178        O  0.49191710  0.10466698  0.72321853    -0.81000
C179        C  0.46651125  0.09604414  0.72353341     0.99500
O180        O  0.45789157  0.11222514  0.71931714    -0.81000
O181        O  0.47288694  0.15310305  0.75348510    -0.83600
C182        C  0.48772955  0.17440778  0.76587233     1.04100
O183        O  0.51139618  0.19229998  0.75830743    -0.76400
O184        O  0.53806943  0.16324276  0.76113358    -0.76600
C185        C  0.54688908  0.14763005  0.75568052     1.04000
O186        O  0.55236219  0.16765391  0.68881777    -0.83900
O187        O  0.49848266  0.12999424  0.67761365    -0.81000
C188        C  0.48620703  0.14159936  0.66971346     0.99600
O189        O  0.47959683  0.15486235  0.68331458    -0.81000
O190        O  0.49252134  0.19545870  0.71611255    -0.83600
C191        C  0.51667059  0.21545089  0.71065286     1.04000
O192        O  0.53754968  0.21354017  0.71385856    -0.76400
O193        O  0.57046347  0.19230988  0.72081296    -0.76600
C194        C  0.57285631  0.18677685  0.69958821     1.04000
Cr195      Cr  0.52135514  0.13733135  0.70702206     1.93700
Cr196      Cr  0.47830036  0.15417648  0.71829648     1.93200
Cr197      Cr  0.53728668  0.18801952  0.73726697     1.39100
O198        O  0.51201190  0.15951131  0.72070947    -1.21700
O199        O  0.73168174  0.23874097  0.91223466    -0.83900
O200        O  0.68262493  0.19473087  0.89578749    -0.81000
C201        C  0.66005558  0.17176118  0.89529089     0.99500
O202        O  0.64866849  0.15975298  0.91461760    -0.81000
O203        O  0.68447236  0.14531398  0.93263512    -0.83600
C204        C  0.70661510  0.14859754  0.94106096     1.04100
O205        O  0.72032965  0.16778136  0.95602629    -0.76400
O206        O  0.74607678  0.21220110  0.92572928    -0.76600
C207        C  0.74784296  0.22979906  0.91108004     1.04000
O208        O  0.70243145  0.24680937  0.94956006    -0.83900
O209        O  0.65298739  0.20609489  0.93066379    -0.81000
C210        C  0.63961044  0.19473650  0.94944845     0.99600
O211        O  0.64470793  0.17907647  0.96129930    -0.81000
O212        O  0.67545547  0.15876883  0.97993891    -0.83600
C213        C  0.68888860  0.17779509  0.99498079     1.04000
O214        O  0.70894460  0.20083008  0.98822323    -0.76400
O215        O  0.73931982  0.24630778  0.95963701    -0.76600
C216        C  0.72597415  0.25848950  0.95916296     1.04000
Cr217      Cr  0.69260627  0.21981186  0.92346117     1.93700
Cr218      Cr  0.66541734  0.16303000  0.94681894     1.93200
Cr219      Cr  0.72637850  0.20600006  0.95650989     1.39100
O220        O  0.69487852  0.19630071  0.94219029    -1.21700
O221        O  0.86488995  0.41875331  0.73538904    -0.83900
O222        O  0.88171423  0.39291562  0.70424231    -0.81000
C223        C  0.88578209  0.37887190  0.71932474     0.99500
O224        O  0.86542592  0.35705764  0.72768408    -0.81000
O225        O  0.81294819  0.32052036  0.74408569    -0.83600
C226        C  0.81262971  0.33137825  0.76362158     1.04100
O227        O  0.81306890  0.35378029  0.76374860    -0.76400
O228        O  0.82327817  0.40428402  0.74952308    -0.76600
C229        C  0.84927726  0.42023139  0.75056697     1.04000
O230        O  0.82504971  0.41464218  0.70187908    -0.83900
O231        O  0.83719661  0.38324560  0.67206737    -0.81000
C232        C  0.83852730  0.36275287  0.66525801     0.99600
O233        O  0.84438393  0.35003332  0.68015690    -0.81000
O234        O  0.79144494  0.31839064  0.69756012    -0.83600
C235        C  0.77003695  0.31311406  0.70894065     1.04000
O236        O  0.77190665  0.32705863  0.72724720    -0.76400
O237        O  0.78502958  0.37819827  0.71098860    -0.76600
C238        C  0.79891775  0.40232407  0.70263125     1.04000
Cr239      Cr  0.85050328  0.40004090  0.70416590     1.93700
Cr240      Cr  0.82848547  0.33870509  0.71270170     1.93200
Cr241      Cr  0.80023305  0.36595836  0.73645911     1.39100
O242        O  0.82632952  0.36827949  0.71785381    -1.21700
O243        O  0.76268196  0.49920383  0.91636792    -0.83900
O244        O  0.80698931  0.49736465  0.89971014    -0.81000
C245        C  0.83005148  0.49918658  0.89865707     0.99500
O246        O  0.84343557  0.50248304  0.91764667    -0.81000
O247        O  0.85644903  0.55385145  0.93417935    -0.83600
C248        C  0.85277929  0.57236939  0.94247528     1.04100
O249        O  0.83368109  0.56607612  0.95750149    -0.76400
O250        O  0.78782967  0.54231995  0.92811393    -0.76600
C251        C  0.76958999  0.52417618  0.91454023     1.04000
O252        O  0.75691450  0.46418726  0.95483206    -0.83900
O253        O  0.79850192  0.45857966  0.93581235    -0.81000
C254        C  0.81086667  0.45873913  0.95445429     0.99600
O255        O  0.82650226  0.48102369  0.96543391    -0.81000
O256        O  0.84550009  0.53360425  0.98218872    -0.83600
C257        C  0.82676652  0.52707225  0.99755656     1.04000
O258        O  0.80312303  0.52160132  0.99116976    -0.76400
O259        O  0.75614355  0.50127412  0.96360299    -0.76600
C260        C  0.74448675  0.47516764  0.96367306     1.04000
Cr261      Cr  0.78308021  0.48197118  0.92799711     1.93700
Cr262      Cr  0.84059883  0.51731785  0.94956635     1.93200
Cr263      Cr  0.79610754  0.53140209  0.95924691     1.39100
O264        O  0.80658371  0.51030490  0.94552250    -1.21700
O265        O  0.24781524  0.48883219  0.58351752    -0.83900
O266        O  0.29573000  0.49273850  0.59828189    -0.81000
C267        C  0.31791551  0.49275425  0.59796536     0.99500
O268        O  0.32791973  0.49135653  0.57821472    -0.81000
O269        O  0.28922264  0.44005236  0.56030608    -0.83600
C270        C  0.26679130  0.42075360  0.55171238     1.04100
O271        O  0.25244437  0.42628684  0.53813713    -0.76400
O272        O  0.22920006  0.44673053  0.56900355    -0.76600
C273        C  0.22949056  0.46342814  0.58406598     1.04000
O274        O  0.27760016  0.52621252  0.54587433    -0.83900
O275        O  0.32605547  0.53413728  0.56306170    -0.81000
C276        C  0.33790672  0.53589734  0.54355067     0.99600
O277        O  0.33112257  0.51443686  0.53167047    -0.81000
O278        O  0.29773041  0.46243840  0.51357830    -0.83600
C279        C  0.28576065  0.46960994  0.49906988     1.04000
O280        O  0.26611989  0.47223300  0.50605912    -0.76400
O281        O  0.23856308  0.48897926  0.53596879    -0.76600
C282        C  0.25346738  0.51510760  0.53771646     1.04000
Cr283      Cr  0.28636030  0.50841504  0.57126712     1.93700
Cr284      Cr  0.30947273  0.47730284  0.54639299     1.93200
Cr285      Cr  0.24896433  0.45998570  0.53808735     1.39100
O286        O  0.28135759  0.48163928  0.55212702    -1.21700
O287        O  0.10657392  0.53103700  0.75791797    -0.83900
O288        O  0.08839839  0.48866318  0.79061808    -0.81000
C289        C  0.08186232  0.46856119  0.77670751     0.99500
O290        O  0.10040898  0.46518179  0.76800957    -0.81000
O291        O  0.15019100  0.48014474  0.74707969    -0.83600
C292        C  0.14982146  0.49106425  0.72753537     1.04100
O293        O  0.15033087  0.51348536  0.72768220    -0.76400
O294        O  0.14814404  0.55807199  0.74329249    -0.76600
C295        C  0.12253294  0.54885514  0.74294671     1.04000
O296        O  0.15060206  0.56781978  0.78973748    -0.83900
O297        O  0.13528948  0.52433761  0.82043789    -0.81000
C298        C  0.13243297  0.50220163  0.82833508     0.99600
O299        O  0.12686568  0.48259308  0.81409581    -0.81000
O300        O  0.17746038  0.50302331  0.79239426    -0.83600
C301        C  0.19792107  0.51825638  0.77923070     1.04000
O302        O  0.19458701  0.52737998  0.75994392    -0.76400
O303        O  0.18779553  0.56818576  0.77876430    -0.76600
C304        C  0.17672065  0.58027773  0.78804511     1.04000
Cr305      Cr  0.12167204  0.52715390  0.78872604     1.93700
Cr306      Cr  0.13893461  0.48490693  0.78002362     1.93200
Cr307      Cr  0.16829009  0.54002719  0.75392770     1.39100
O308        O  0.14286396  0.51732347  0.77423826    -1.21700
O309        O  0.41448629  0.85818530  0.76394128    -0.83900
O310        O  0.39665022  0.89294678  0.77763229    -0.81000
C311        C  0.37965909  0.90067277  0.78011214     0.99500
O312        O  0.35541127  0.88400352  0.78759979    -0.81000
O313        O  0.32813147  0.84629173  0.75141745    -0.83600
C314        C  0.32146458  0.82615203  0.73769899     1.04100
O315        O  0.32430147  0.80662608  0.74447785    -0.76400
O316        O  0.37993521  0.83316773  0.73940254    -0.76600
C317        C  0.40539998  0.84916666  0.74310451     1.04000
O318        O  0.39643581  0.83089392  0.80974998    -0.83900
O319        O  0.37989964  0.86661518  0.82398740    -0.81000
C320        C  0.35591950  0.85200966  0.83308284     0.99600
O321        O  0.33478211  0.83851400  0.82028921    -0.81000
O322        O  0.30319444  0.80158509  0.78617950    -0.83600
C323        C  0.30619028  0.78158803  0.79142793     1.04000
O324        O  0.32910121  0.78359429  0.78819528    -0.76400
O325        O  0.38373067  0.80408173  0.77850687    -0.76600
C326        C  0.39519941  0.81103466  0.79856037     1.04000
Cr327      Cr  0.39424599  0.86054944  0.79296418     1.93700
Cr328      Cr  0.33263032  0.84244259  0.78600777     1.93200
Cr329      Cr  0.35468672  0.80900906  0.76404013     1.39100
O330        O  0.36076011  0.83762722  0.78111717    -1.21700
O331        O  0.20134800  0.71321350  0.59925401    -0.83900
O332        O  0.17304883  0.65608024  0.59305016    -0.81000
C333        C  0.14857614  0.64917989  0.59803139     0.99500
O334        O  0.13641012  0.65767396  0.58531938    -0.81000
O335        O  0.12622457  0.68525507  0.55056831    -0.83600
C336        C  0.13466188  0.70979273  0.55723761     1.04100
O337        O  0.16012704  0.72745669  0.55843212    -0.76400
O338        O  0.21262250  0.74685150  0.57373772    -0.76600
C339        C  0.21150998  0.73859055  0.59499237     1.04000
O340        O  0.23760461  0.71978770  0.56152596    -0.83900
O341        O  0.20403713  0.66460938  0.55087321    -0.81000
C342        C  0.18301784  0.64148588  0.54567136     0.99600
O343        O  0.15878159  0.63671334  0.54963224    -0.81000
O344        O  0.15129685  0.66660901  0.51660015    -0.83600
C345        C  0.15967469  0.68748496  0.50364778     1.04000
O346        O  0.17156420  0.71163338  0.51259158    -0.76400
O347        O  0.22388539  0.72920880  0.52871739    -0.76600
C348        C  0.24279886  0.73015343  0.54100995     1.04000
Cr349      Cr  0.20214672  0.68875879  0.57478648     1.93700
Cr350      Cr  0.14580239  0.66399505  0.55100494     1.93200
Cr351      Cr  0.19095446  0.72610757  0.54423415     1.39100
O352        O  0.17947621  0.69304746  0.55647856    -1.21700
O353        O  0.44733724  0.58527443  0.75267666    -0.83900
O354        O  0.48904647  0.60611967  0.78634744    -0.81000
C355        C  0.51024039  0.62008195  0.77336607     0.99500
O356        O  0.51573252  0.64318417  0.76533156    -0.81000
O357        O  0.50705375  0.68352947  0.74765097    -0.83600
C358        C  0.49620959  0.67372402  0.72760307     1.04100
O359        O  0.47232062  0.65254227  0.72628498    -0.76400
O360        O  0.42543294  0.60435279  0.73794551    -0.76600
C361        C  0.43222587  0.58645389  0.73687571     1.04000
O362        O  0.41257997  0.59258562  0.78468057    -0.83900
O363        O  0.45527159  0.61826672  0.81675793    -0.81000
C364        C  0.47790180  0.63728421  0.82525839     0.99600
O365        O  0.49882054  0.65021190  0.81188523    -0.81000
O366        O  0.48484331  0.68573099  0.79335345    -0.83600
C367        C  0.47120194  0.69330209  0.78142853     1.04000
O368        O  0.46039815  0.68163327  0.76183765    -0.76400
O369        O  0.41550482  0.63154256  0.77616322    -0.76600
C370        C  0.40176853  0.60718503  0.78411433     1.04000
Cr371      Cr  0.45218411  0.60305129  0.78432634     1.93700
Cr372      Cr  0.49922322  0.66364147  0.77899281     1.93200
Cr373      Cr  0.44500070  0.64215589  0.75207564     1.39100
O374        O  0.46543192  0.63621819  0.77171575    -1.21700
O375        O  0.48232057  0.75115770  0.57457220    -0.83900
O376        O  0.47664337  0.79269327  0.59310178    -0.81000
C377        C  0.47864584  0.81579775  0.59498502     0.99500
O378        O  0.48274637  0.83028782  0.57664467    -0.81000
O379        O  0.53464226  0.84492808  0.56113627    -0.83600
C380        C  0.55351996  0.84182162  0.55291824     1.04100
O381        O  0.54814537  0.82547712  0.53565771    -0.76400
O382        O  0.52556683  0.77904301  0.56384712    -0.76600
C383        C  0.50777850  0.75977447  0.57684549     1.04000
O384        O  0.44788687  0.74617281  0.53536053    -0.83900
O385        O  0.43899431  0.78508360  0.55597368    -0.81000
C386        C  0.43997173  0.80048635  0.53932778     0.99600
O387        O  0.46245945  0.81681806  0.52888862    -0.81000
O388        O  0.51505639  0.83651760  0.51208515    -0.83600
C389        C  0.50931347  0.81861894  0.49598713     1.04000
O390        O  0.50500250  0.79513586  0.50138422    -0.76400
O391        O  0.48633470  0.74764067  0.52754474    -0.76600
C392        C  0.46025525  0.73509295  0.52664827     1.04000
Cr393      Cr  0.46356241  0.77065897  0.56347035     1.93700
Cr394      Cr  0.49850564  0.82984391  0.54478858     1.93200
Cr395      Cr  0.51469331  0.78753491  0.53299290     1.39100
O396        O  0.49208020  0.79592685  0.54706323    -1.21700
O397        O  0.24443185  0.80424274  0.07483164    -0.83900
O398        O  0.26941459  0.84564887  0.04149702    -0.81000
C399        C  0.28312479  0.86660810  0.05488514     0.99500
O400        O  0.30558504  0.87136284  0.06394656    -0.81000
O401        O  0.34393154  0.86088725  0.08356795    -0.83600
C402        C  0.33460444  0.85124368  0.10393458     1.04100
O403        O  0.31190967  0.82858783  0.10579842    -0.76400
O404        O  0.26195488  0.78293494  0.09361085    -0.76600
C405        C  0.24403825  0.78960644  0.09179445     1.04000
O406        O  0.25161351  0.76724998  0.04562363    -0.83900
O407        O  0.28137734  0.81000925  0.01324610    -0.81000
C408        C  0.30105590  0.83255541  0.00521153     0.99600
O409        O  0.31385580  0.85326998  0.01870461    -0.81000
O410        O  0.34648286  0.83661082  0.03992074    -0.83600
C411        C  0.35246924  0.82259199  0.05322408     1.04000
O412        O  0.33924228  0.81233359  0.07235625    -0.76400
O413        O  0.28865452  0.76860621  0.05835898    -0.76600
C414        C  0.26482677  0.75526493  0.04928229     1.04000
Cr415      Cr  0.26426822  0.80782063  0.04471348     1.93700
Cr416      Cr  0.32520381  0.85311629  0.05207776     1.93200
Cr417      Cr  0.30010654  0.79973610  0.08083794     1.39100
O418        O  0.29639456  0.82010271  0.05932894    -1.21700
O419        O  0.44193111  0.84479354  0.23659608    -0.83900
O420        O  0.48598028  0.83944214  0.22622905    -0.81000
C421        C  0.50765587  0.83878356  0.22868356     0.99500
O422        O  0.51713088  0.84014191  0.24926050    -0.81000
O423        O  0.53023667  0.89179725  0.26628692    -0.83600
C424        C  0.52653891  0.91028961  0.27475037     1.04100
O425        O  0.50577632  0.90368249  0.28784782    -0.76400
O426        O  0.46508344  0.88578391  0.25358711    -0.76600
C427        C  0.45037186  0.87027140  0.23674602     1.04000
O428        O  0.42587155  0.80511807  0.27384934    -0.83900
O429        O  0.46767380  0.79695702  0.26142046    -0.81000
C430        C  0.47659627  0.79486666  0.28136580     0.99600
O431        O  0.49159281  0.81608643  0.29393497    -0.81000
O432        O  0.51112122  0.86822998  0.31236362    -0.83600
C433        C  0.49053266  0.86071004  0.32576074     1.04000
O434        O  0.46826364  0.85671031  0.31702534    -0.76400
O435        O  0.42662552  0.84260109  0.28413583    -0.76600
C436        C  0.41369703  0.81656628  0.28214675     1.04000
Cr437      Cr  0.45696364  0.82359274  0.25107529     1.93700
Cr438      Cr  0.51029867  0.85387057  0.27983149     1.93200
Cr439      Cr  0.46733135  0.87067079  0.28483481     1.39100
O440        O  0.47813842  0.84946211  0.27169991    -1.21700
O441        O  0.15163057  0.59915704  0.24062662    -0.83900
O442        O  0.15889025  0.64895228  0.22669585    -0.81000
C443        C  0.16061947  0.67198257  0.22772075     0.99500
O444        O  0.16260154  0.68307214  0.24768470    -0.81000
O445        O  0.11214286  0.64729355  0.26800226    -0.83600
C446        C  0.09276342  0.62515780  0.27691392     1.04100
O447        O  0.09829170  0.61143220  0.29111996    -0.76400
O448        O  0.11224646  0.58410487  0.25931551    -0.76600
C449        C  0.12593010  0.58219887  0.24256695     1.04000
O450        O  0.19430910  0.62739509  0.27525400    -0.83900
O451        O  0.20456674  0.67733729  0.25898072    -0.81000
C452        C  0.20912799  0.69208010  0.27735285     0.99600
O453        O  0.18956452  0.68689810  0.29144096    -0.81000
O454        O  0.13811442  0.65637465  0.31353142    -0.83600
C455        C  0.14251076  0.64223863  0.32807903     1.04000
O456        O  0.14500913  0.62272364  0.32046947    -0.76400
O457        O  0.15652380  0.59180169  0.28961408    -0.76600
C458        C  0.18243139  0.60464945  0.28616180     1.04000
Cr459      Cr  0.17547512  0.63800981  0.25206633     1.93700
Cr460      Cr  0.15061562  0.66607028  0.27982859     1.93200
Cr461      Cr  0.12978589  0.60497422  0.28906428     1.39100
O462        O  0.15202763  0.63623878  0.27367952    -1.21700
O463        O  0.20822536  0.46730691  0.06995701    -0.83900
O464        O  0.15491053  0.43460306  0.05500551    -0.81000
C465        C  0.12977980  0.42712958  0.05586939     0.99500
O466        O  0.12231793  0.44441751  0.05192419    -0.81000
O467        O  0.13486411  0.48148681  0.08799912    -0.83600
C468        C  0.14903701  0.50029078  0.10279580     1.04100
O469        O  0.17374914  0.51826356  0.09795908    -0.76400
O470        O  0.19719877  0.48637515  0.09846324    -0.76600
C471        C  0.20716714  0.47212682  0.09195528     1.04000
O472        O  0.21918778  0.50131262  0.02756051    -0.83900
O473        O  0.16638731  0.46612328  0.01160190    -0.81000
C474        C  0.15631892  0.48010698  0.00429781     0.99600
O475        O  0.14911333  0.49197151  0.01891519    -0.81000
O476        O  0.16031917  0.52885712  0.05493870    -0.83600
C477        C  0.18544895  0.54916599  0.05399166     1.04000
O478        O  0.20511913  0.54529569  0.05713962    -0.76400
O479        O  0.23459902  0.51987990  0.06230927    -0.76600
C480        C  0.23906926  0.51723294  0.04081751     1.04000
Cr481      Cr  0.18624861  0.46895446  0.04215140     1.93700
Cr482      Cr  0.14407235  0.48677411  0.05356763     1.93200
Cr483      Cr  0.20068414  0.51535872  0.07737691     1.39100
O484        O  0.17667599  0.49012555  0.05750534    -1.21700
O485        O  0.53094691  0.74872823  0.06897717    -0.83900
O486        O  0.54602281  0.72381002  0.03515338    -0.81000
C487        C  0.55049781  0.70927992  0.04926609     0.99500
O488        O  0.53021735  0.68787084  0.05832687    -0.81000
O489        O  0.47676935  0.65075343  0.07420381    -0.83600
C490        C  0.47513797  0.66029732  0.09398508     1.04100
O491        O  0.47545091  0.68252171  0.09520055    -0.76400
O492        O  0.48963033  0.73446950  0.08393546    -0.76600
C493        C  0.51575558  0.74874751  0.08545702     1.04000
O494        O  0.49249052  0.74926989  0.03707203    -0.83900
O495        O  0.50192114  0.71710673  0.00471529    -0.81000
C496        C  0.50343872  0.69699667  0.99688181     0.99600
O497        O  0.50873604  0.68317595  0.01106988    -0.81000
O498        O  0.45631748  0.65149827  0.02816251    -0.83600
C499        C  0.43464964  0.64790741  0.03787291     1.04000
O500        O  0.43567368  0.66071124  0.05670170    -0.76400
O501        O  0.45168178  0.71335796  0.04436019    -0.76600
C502        C  0.46653470  0.73812040  0.03783358     1.04000
Cr503      Cr  0.51599355  0.73235378  0.03717825     1.93700
Cr504      Cr  0.49297928  0.67057395  0.04353314     1.93200
Cr505      Cr  0.46504300  0.69785679  0.06859927     1.39100
O506        O  0.49118550  0.70020705  0.04993340    -1.21700
O507        O  0.39368804  0.57335930  0.24715517    -0.83900
O508        O  0.34498563  0.52881601  0.23110140    -0.81000
C509        C  0.32294743  0.50542009  0.23065789     0.99500
O510        O  0.31189003  0.49310716  0.24995685    -0.81000
O511        O  0.34880193  0.47979709  0.26707241    -0.83600
C512        C  0.37105551  0.48333754  0.27543960     1.04100
O513        O  0.38489879  0.50268758  0.29019498    -0.76400
O514        O  0.40876051  0.54688470  0.25918718    -0.76600
C515        C  0.41013312  0.56483649  0.24513794     1.04000
O516        O  0.36476404  0.58044866  0.28519162    -0.83900
O517        O  0.31512008  0.53898808  0.26661221    -0.81000
C518        C  0.30186723  0.52689960  0.28524485     0.99600
O519        O  0.30771183  0.51162061  0.29681634    -0.81000
O520        O  0.34016282  0.49291101  0.31473251    -0.83600
C521        C  0.35397896  0.51186069  0.32977068     1.04000
O522        O  0.37360359  0.53511731  0.32286820    -0.76400
O523        O  0.40244349  0.58072454  0.29379200    -0.76600
C524        C  0.38888953  0.59272053  0.29369691     1.04000
Cr525      Cr  0.35482141  0.55360001  0.25889907     1.93700
Cr526      Cr  0.32920444  0.49669675  0.28185300     1.93200
Cr527      Cr  0.39010194  0.54055557  0.29065939     1.39100
O528        O  0.35804438  0.53031837  0.27716674    -1.21700
O529        O  0.89684144  0.09582699  0.40358355    -0.83900
O530        O  0.91747266  0.14974152  0.39120437    -0.81000
C531        C  0.93588380  0.17508012  0.39122840     0.99500
O532        O  0.96073615  0.18325182  0.38597107    -0.81000
O533        O  0.98564592  0.17007541  0.42049629    -0.83600
C534        C  0.99095794  0.15578689  0.43387124     1.04100
O535        O  0.98569642  0.13241406  0.42686205    -0.76400
O536        O  0.92892704  0.10432604  0.43000184    -0.76600
C537        C  0.90402218  0.09554760  0.42488924     1.04000
O538        O  0.91638672  0.08722761  0.35867307    -0.83900
O539        O  0.93530787  0.14097545  0.34586557    -0.81000
C540        C  0.95966184  0.15282393  0.33761679     0.99600
O541        O  0.98013473  0.16002508  0.35092415    -0.81000
O542        O  0.00850665  0.15005792  0.38421720    -0.83600
C543        C  0.00382311  0.12613767  0.37896631     1.04000
O544        O  0.98036562  0.10494251  0.38287829    -0.76400
O545        O  0.92461223  0.07107823  0.39061050    -0.76600
C546        C  0.91497412  0.06740252  0.36990217     1.04000
Cr547      Cr  0.91923834  0.11939595  0.37585517     1.93700
Cr548      Cr  0.98134983  0.16320792  0.38567192     1.93200
Cr549      Cr  0.95470246  0.10518671  0.40620230     1.39100
O550        O  0.95166397  0.12943697  0.38905666    -1.21700
O551        O  0.09048040  0.15745716  0.57488975    -0.83900
O552        O  0.13317363  0.15192659  0.55942308    -0.81000
C553        C  0.15585878  0.15289881  0.55913120     0.99500
O554        O  0.16723130  0.15331915  0.57858379    -0.81000
O555        O  0.18289761  0.20479486  0.59626709    -0.83600
C556        C  0.18021570  0.22385117  0.60481147     1.04100
O557        O  0.16156572  0.21819334  0.62009934    -0.76400
O558        O  0.11696285  0.19911821  0.58994091    -0.76600
C559        C  0.09938684  0.18303793  0.57485672     1.04000
O560        O  0.07922598  0.11898253  0.61232210    -0.83900
O561        O  0.11930810  0.11007365  0.59481100    -0.81000
C562        C  0.13031042  0.10844196  0.61376066     0.99600
O563        O  0.14691159  0.12998644  0.62530070    -0.81000
O564        O  0.16930306  0.18246304  0.64396626    -0.83600
C565        C  0.15093013  0.17776649  0.65925327     1.04000
O566        O  0.12778980  0.17335595  0.65236982    -0.76400
O567        O  0.08227346  0.15744827  0.62345966    -0.76600
C568        C  0.06859319  0.13133404  0.62199049     1.04000
Cr569      Cr  0.10743937  0.13663990  0.58683516     1.93700
Cr570      Cr  0.16422659  0.16736465  0.61070148     1.93200
Cr571      Cr  0.12285349  0.18534662  0.62050690     1.39100
O572        O  0.13138184  0.16309788  0.60596612    -1.21700
O573        O  0.19910526  0.07652851  0.39980516    -0.83900
O574        O  0.21514847  0.05062077  0.36804465    -0.81000
C575        C  0.22003494  0.03627097  0.38218682     0.99500
O576        O  0.20047067  0.01346327  0.38990335    -0.81000
O577        O  0.14990933  0.97715073  0.40932824    -0.83600
C578        C  0.15205145  0.98857080  0.42924007     1.04100
O579        O  0.15355465  0.01146148  0.43003999    -0.76400
O580        O  0.15858706  0.06020334  0.41675240    -0.76600
C581        C  0.18427724  0.07754431  0.41601350     1.04000
O582        O  0.15521070  0.06858755  0.36879591    -0.83900
O583        O  0.16843521  0.03922875  0.33783990    -0.81000
C584        C  0.17052489  0.01963197  0.32986558     0.99600
O585        O  0.17604349  0.00589448  0.34388720    -0.81000
O586        O  0.12407187  0.97489977  0.36431690    -0.83600
C587        C  0.10402410  0.96933084  0.37787526     1.04000
O588        O  0.10832996  0.98185865  0.39750286    -0.76400
O589        O  0.11764408  0.03115483  0.38115260    -0.76600
C590        C  0.12918421  0.05481857  0.37195009     1.04000
Cr591      Cr  0.18292007  0.05636023  0.36943892     1.93700
Cr592      Cr  0.16254290  0.99494865  0.37721447     1.93200
Cr593      Cr  0.13637812  0.02142276  0.40483489     1.39100
O594        O  0.16077147  0.02445794  0.38387604    -1.21700
O595        O  0.81759580  0.91781125  0.58131150    -0.83900
O596        O  0.81958399  0.96417507  0.56479962    -0.81000
C597        C  0.81822150  0.98561283  0.56439954     0.99500
O598        O  0.81868466  0.99733371  0.58369289    -0.81000
O599        O  0.76824453  0.95944404  0.60289155    -0.83600
C600        C  0.74948409  0.93708449  0.61205555     1.04100
O601        O  0.75557602  0.92389052  0.62633357    -0.76400
O602        O  0.77549089  0.90003664  0.59522002    -0.76600
C603        C  0.79226683  0.89923350  0.58086841     1.04000
O604        O  0.85593016  0.94952722  0.61748511    -0.83900
O605        O  0.86258222  0.99716360  0.59812447    -0.81000
C606        C  0.86514723  0.01018754  0.61711384     0.99600
O607        O  0.84415014  0.00376277  0.62969805    -0.81000
O608        O  0.79209294  0.97035541  0.64901847    -0.83600
C609        C  0.79893629  0.95864664  0.66405188     1.04000
O610        O  0.80194788  0.93905989  0.65763940    -0.76400
O611        O  0.81834788  0.91118666  0.62840164    -0.76600
C612        C  0.84444484  0.92586022  0.62683305     1.04000
Cr613      Cr  0.83695035  0.95690467  0.59185739     1.93700
Cr614      Cr  0.80612176  0.98079196  0.61603210     1.93200
Cr615      Cr  0.78927589  0.92087310  0.62596777     1.39100
O616        O  0.81066507  0.95270998  0.61124483    -1.21700
O617        O  0.85580662  0.78348674  0.40027045    -0.83900
O618        O  0.81145798  0.76175643  0.36959155    -0.81000
C619        C  0.79203415  0.75346698  0.38471116     0.99500
O620        O  0.78632083  0.77047879  0.39342504    -0.81000
O621        O  0.79584498  0.82011832  0.41212303    -0.83600
C622        C  0.80680175  0.82079653  0.43179451     1.04100
O623        O  0.82979879  0.82249197  0.43226700    -0.76400
O624        O  0.87669094  0.82419168  0.41773660    -0.76600
C625        C  0.87058777  0.79942372  0.41687616     1.04000
O626        O  0.88807391  0.82871626  0.36860423    -0.83900
O627        O  0.84269819  0.81011373  0.33905174    -0.81000
C628        C  0.81901002  0.80414890  0.33225658     0.99600
O629        O  0.79952837  0.79475328  0.34713371    -0.81000
O630        O  0.81646420  0.84613658  0.36686406    -0.83600
C631        C  0.83092927  0.86741041  0.37961602     1.04000
O632        O  0.84136091  0.86549597  0.39879186    -0.76400
O633        O  0.88566178  0.86358241  0.38223188    -0.76600
C634        C  0.89904886  0.85444286  0.37198428     1.04000
Cr635      Cr  0.84848735  0.79732022  0.37028372     1.93700
Cr636      Cr  0.80189843  0.80829271  0.38022582     1.93200
Cr637      Cr  0.85676182  0.84191311  0.40620330     1.39100
O638        O  0.83589581  0.81582615  0.38564516    -1.21700
O639        O  0.04384141  0.87123771  0.56177111    -0.83900
O640        O  0.98737027  0.84490974  0.56064258    -0.81000
C641        C  0.98160907  0.82097999  0.55502466     0.99500
O642        O  0.98574508  0.80687234  0.56968171    -0.81000
O643        O  0.00799742  0.79471268  0.60745060    -0.83600
C644        C  0.03299470  0.80340569  0.60221210     1.04100
O645        O  0.05129271  0.82868730  0.60369602    -0.76400
O646        O  0.07353100  0.88201019  0.59094899    -0.76600
C647        C  0.06816140  0.88019391  0.56880551     1.04000
O648        O  0.04553554  0.90623419  0.59892281    -0.83900
O649        O  0.98956793  0.87364530  0.60280665    -0.81000
C650        C  0.96602208  0.85263681  0.60657456     0.99600
O651        O  0.96090638  0.82840683  0.60213363    -0.81000
O652        O  0.98509216  0.81861140  0.63878905    -0.83600
C653        C  0.00377201  0.82596423  0.65408411     1.04000
O654        O  0.02883842  0.83689335  0.64763582    -0.76400
O655        O  0.04815923  0.89031141  0.63331182    -0.76600
C656        C  0.05029069  0.90974375  0.62090548     1.04000
Cr657      Cr  0.01664158  0.87217311  0.58244987     1.93700
Cr658      Cr  0.98733356  0.81463436  0.60434854     1.93200
Cr659      Cr  0.04809346  0.85856752  0.61786514     1.39100
O660        O  0.01732629  0.84821966  0.60175024    -1.21700
O661        O  0.91344252  0.83155049  0.91208430    -0.83900
O662        O  0.96277980  0.83898471  0.92702678    -0.81000
C663        C  0.98477625  0.83865407  0.92722648     0.99500
O664        O  0.99604536  0.83838647  0.90780434    -0.81000
O665        O  0.96023761  0.78662346  0.89065282    -0.83600
C666        C  0.93810529  0.76619573  0.88289972     1.04100
O667        O  0.92271577  0.76993520  0.86914395    -0.76400
O668        O  0.89906232  0.78925630  0.90038294    -0.76600
C669        C  0.89748063  0.80574221  0.91443149     1.04000
O670        O  0.94128833  0.86834673  0.87349956    -0.83900
O671        O  0.99162583  0.88014541  0.89114257    -0.81000
C672        C  0.00435264  0.88179296  0.87216291     0.99600
O673        O  0.99854185  0.86035316  0.86064101    -0.81000
O674        O  0.96678561  0.80737952  0.84299034    -0.83600
C675        C  0.95141417  0.81000793  0.82835799     1.04000
O676        O  0.93198899  0.81278383  0.83580322    -0.76400
O677        O  0.90359419  0.82872073  0.86555634    -0.76600
C678        C  0.91687743  0.85498259  0.86564590     1.04000
Cr679      Cr  0.95214366  0.85277643  0.89954423     1.93700
Cr680      Cr  0.97827967  0.82339769  0.87585652     1.93200
Cr681      Cr  0.91669412  0.80189669  0.86850716     1.39100
O682        O  0.94902227  0.82602016  0.88123691    -1.21700
O683        O  0.10977708  0.91037646  0.08563012    -0.83900
O684        O  0.15408734  0.93679699  0.11682646    -0.81000
C685        C  0.17405736  0.95273039  0.10326605     0.99500
O686        O  0.17593388  0.97439423  0.09526298    -0.81000
O687        O  0.15868584  0.00756920  0.07698639    -0.83600
C688        C  0.14715590  0.99564697  0.05762386     1.04100
O689        O  0.12423260  0.97307128  0.05793836    -0.76400
O690        O  0.08139728  0.92317718  0.07375382    -0.76600
C691        C  0.09080909  0.90747576  0.07200784     1.04000
O692        O  0.07414436  0.91381395  0.12019851    -0.83900
O693        O  0.11889116  0.94439894  0.14936987    -0.81000
C694        C  0.14066213  0.96563128  0.15671875     0.99600
O695        O  0.15970394  0.98094234  0.14226963    -0.81000
O696        O  0.13793870  0.01025042  0.12371017    -0.83600
C697        C  0.12163194  0.01455608  0.11197886     1.04000
O698        O  0.11099959  0.00099998  0.09309712    -0.76400
O699        O  0.07241163  0.95045010  0.11185102    -0.76600
C700        C  0.06118956  0.92642145  0.12040453     1.04000
Cr701      Cr  0.11503575  0.92875942  0.11711170     1.93700
Cr702      Cr  0.15574473  0.99106334  0.10920203     1.93200
Cr703      Cr  0.09913750  0.96187806  0.08553428     1.39100
O704        O  0.12339469  0.96051007  0.10389969    -1.21700
O705        O  0.15598813  0.10234053  0.91911519    -0.83900
O706        O  0.15495361  0.14776171  0.93509930    -0.81000
C707        C  0.15619865  0.17058614  0.93542641     0.99500
O708        O  0.15803869  0.18267967  0.91593012    -0.81000
O709        O  0.20876774  0.19652198  0.89716939    -0.83600
C710        C  0.22729805  0.19235826  0.88967724     1.04100
O711        O  0.22085515  0.17240580  0.87551796    -0.76400
O712        O  0.19832089  0.12741995  0.90534914    -0.76600
C713        C  0.18110946  0.10954098  0.91955887     1.04000
O714        O  0.11901534  0.09543340  0.88189413    -0.83900
O715        O  0.11343805  0.13688926  0.90081261    -0.81000
C716        C  0.11169994  0.14756829  0.88178307     0.99600
O717        O  0.13308099  0.16245013  0.86936503    -0.81000
O718        O  0.18505632  0.18208879  0.84969033    -0.83600
C719        C  0.18006498  0.16296588  0.83505881     1.04000
O720        O  0.17556213  0.14015160  0.84269199    -0.76400
O721        O  0.15566918  0.09455626  0.87125626    -0.76600
C722        C  0.12956406  0.08312293  0.87205924     1.04000
Cr723      Cr  0.13803047  0.12240979  0.90776279     1.93700
Cr724      Cr  0.17092115  0.17857463  0.88337334     1.93200
Cr725      Cr  0.18609825  0.13460429  0.87466899     1.39100
O726        O  0.16518003  0.14523371  0.88866200    -1.21700
O727        O  0.88564952  0.06773693  0.91676627    -0.83900
O728        O  0.84159725  0.01830485  0.93135306    -0.81000
C729        C  0.81860160  0.99584871  0.93139844     0.99500
O730        O  0.80630980  0.98555397  0.91192506    -0.81000
O731        O  0.79380934  0.02338441  0.89459742    -0.83600
C732        C  0.79729514  0.04540191  0.88571232     1.04100
O733        O  0.81676269  0.05899659  0.87100034    -0.76400
O734        O  0.85984989  0.08299091  0.90306915    -0.76600
C735        C  0.87665175  0.08385871  0.91818317     1.04000
O736        O  0.89530877  0.04020752  0.87871667    -0.83900
O737        O  0.85345252  0.98985963  0.89558380    -0.81000
C738        C  0.84100118  0.97624507  0.87713340     0.99600
O739        O  0.82571927  0.98206028  0.86549328    -0.81000
O740        O  0.80785219  0.01506728  0.84729210    -0.83600
C741        C  0.82733569  0.02832053  0.83259370     1.04000
O742        O  0.85047345  0.04794406  0.83980590    -0.76400
O743        O  0.89552175  0.07774635  0.86998628    -0.76600
C744        C  0.90792025  0.06459394  0.87085982     1.04000
Cr745      Cr  0.86724393  0.02922670  0.90414016     1.93700
Cr746      Cr  0.81075613  0.00363959  0.88019107     1.93200
Cr747      Cr  0.85486039  0.06457262  0.87176886     1.39100
O748        O  0.84435578  0.03246057  0.88536855    -1.21700
O749        O  0.06643833  0.20167839  0.09410428    -0.83900
O750        O  0.04324068  0.22256772  0.12446893    -0.81000
C751        C  0.02907626  0.22732214  0.10999991     0.99500
O752        O  0.00670421  0.20724675  0.10182886    -0.81000
O753        O  0.96779702  0.15388273  0.08667461    -0.83600
C754        C  0.97728006  0.15083611  0.06731774     1.04100
O755        O  0.99903766  0.15006423  0.06730675    -0.76400
O756        O  0.04917806  0.15902862  0.08118420    -0.76600
C757        C  0.06643278  0.18477531  0.07944873     1.04000
O758        O  0.06066456  0.16254312  0.12904132    -0.83900
O759        O  0.03163351  0.17837321  0.15780230    -0.81000
C760        C  0.01204339  0.18110327  0.16472578     0.99600
O761        O  0.99943450  0.18708266  0.14981264    -0.81000
O762        O  0.96535799  0.13354579  0.13404809    -0.83600
C763        C  0.95900070  0.11111105  0.12381768     1.04000
O764        O  0.97185269  0.11126005  0.10533199    -0.76400
O765        O  0.02265376  0.12326070  0.12147835    -0.76600
C766        C  0.04694487  0.13635217  0.12955840     1.04000
Cr767      Cr  0.04797603  0.18959857  0.12555520     1.93700
Cr768      Cr  0.98697551  0.17020315  0.11766513     1.93200
Cr769      Cr  0.01104244  0.13807765  0.09520451     1.39100
O770        O  0.01539437  0.16601427  0.11257277    -1.21700
O771        O  0.79366814  0.88542663  0.09343000    -0.83900
O772        O  0.75590526  0.83139460  0.10349071    -0.81000
C773        C  0.74658021  0.80583486  0.10400523     0.99500
O774        O  0.76161776  0.79678693  0.11064215    -0.81000
O775        O  0.80316090  0.81031641  0.07793676    -0.83600
C776        C  0.82549736  0.82420456  0.06660871     1.04100
O777        O  0.84413331  0.84736958  0.07463937    -0.76400
O778        O  0.81981978  0.87819210  0.06922874    -0.76600
C779        C  0.80349424  0.88664773  0.07281700     1.04000
O780        O  0.81709005  0.89161055  0.14052167    -0.83900
O781        O  0.77808543  0.83770928  0.15091260    -0.81000
C782        C  0.78924320  0.82557852  0.16011098     0.99600
O783        O  0.80238253  0.81780604  0.14763366    -0.81000
O784        O  0.84298299  0.82688517  0.11653372    -0.83600
C785        C  0.86332610  0.84993005  0.12347224     1.04000
O786        O  0.86338181  0.87192883  0.12034226    -0.76400
O787        O  0.84650379  0.90837939  0.11115961    -0.76600
C788        C  0.83823396  0.91154624  0.13103085     1.04000
Cr789      Cr  0.78791900  0.86051845  0.12119122     1.93700
Cr790      Cr  0.80294922  0.81565911  0.11289070     1.93200
Cr791      Cr  0.84101524  0.87450498  0.09503989     1.39100
O792        O  0.81033520  0.85010965  0.10981813    -1.21700
C793        C  0.85356946  0.98221869  0.14926323     0.14100
C794        C  0.88269879  0.99754790  0.14836429     0.01100
C795        C  0.89668295  0.98325863  0.14639303     0.16000
C796        C  0.88191293  0.95457739  0.14288210     0.25500
C797        C  0.85286932  0.93954369  0.14174896    -0.40900
C798        C  0.83874403  0.95333796  0.14625544     0.32500
C799        C  0.89847933  0.02810224  0.14495523     0.01100
F800        F  0.92474748  0.99740385  0.14563602    -0.13200
F801        F  0.81068365  0.93928320  0.14543466    -0.13700
C802        C  0.91916073  0.04607121  0.16106376     0.16000
C803        C  0.93769031  0.07397060  0.15508128     0.25500
C804        C  0.93612670  0.08408719  0.13270215    -0.40800
C805        C  0.91453694  0.06646117  0.11722897     0.32400
C806        C  0.89572906  0.03887451  0.12339518     0.14100
F807        F  0.92215818  0.03625827  0.18207797    -0.13200
F808        F  0.91240285  0.07570996  0.09560400    -0.13700
F809        F  0.95839687  0.09048035  0.17035170    -0.16000
F810        F  0.87605842  0.02206189  0.10745626    -0.14500
F811        F  0.83951321  0.99541723  0.15153418    -0.14500
F812        F  0.89603959  0.94165261  0.13908293    -0.16000
C813        C  0.81515449  0.97520704  0.99582878     0.14100
C814        C  0.79434710  0.94704517  0.99505617     0.01100
C815        C  0.77856037  0.93619354  0.97426057     0.16000
C816        C  0.78503456  0.95261664  0.95391148     0.25500
C817        C  0.80756296  0.98026861  0.95400823    -0.40900
C818        C  0.82157395  0.99170783  0.97561628     0.32500
C819        C  0.79185897  0.92861223  0.01478279     0.01100
F820        F  0.75762728  0.90929211  0.97334970    -0.13200
F821        F  0.84260370  0.01853609  0.97698760    -0.13700
C822        C  0.78782914  0.93416869  0.03831847     0.16000
C823        C  0.79039868  0.91971549  0.05724271     0.25500
C824        C  0.79710835  0.89944852  0.05291622    -0.40800
C825        C  0.79949548  0.89282943  0.02922919     0.32400
C826        C  0.79691667  0.90727001  0.01038750     0.14100
F827        F  0.78231861  0.95426979  0.04300593    -0.13200
F828        F  0.80501031  0.87278148  0.02425044    -0.13700
F829        F  0.78790088  0.92672482  0.07980280    -0.16000
F830        F  0.80104968  0.90149353  0.98786045    -0.14500
F831        F  0.83078792  0.98631043  0.01566005    -0.14500
F832        F  0.77016933  0.94087991  0.93382610    -0.16000
C833        C  0.92806165  0.13862850  0.95838780     0.14100
C834        C  0.91463030  0.12877883  0.98038441     0.01100
C835        C  0.88625104  0.10837841  0.98076316     0.16000
C836        C  0.87240482  0.09590831  0.95953738     0.25500
C837        C  0.88682325  0.10367857  0.93786754    -0.40900
C838        C  0.91430731  0.12593534  0.93727328     0.32500
C839        C  0.93126469  0.13600192  0.00241654     0.01100
F840        F  0.87275521  0.09845550  0.00173961    -0.13200
F841        F  0.92860284  0.13349116  0.91648362    -0.13700
C842        C  0.92578854  0.14758401  0.02215704     0.16000
C843        C  0.94101700  0.15291860  0.04317097     0.25500
C844        C  0.96200911  0.14670934  0.04477270    -0.40800
C845        C  0.96744124  0.13523258  0.02480304     0.32400
C846        C  0.95215054  0.12983041  0.00398250     0.14100
F847        F  0.90574459  0.15376639  0.02105832    -0.13200
F848        F  0.98688398  0.12819953  0.02557324    -0.13700
F849        F  0.93517646  0.16417971  0.06189019    -0.16000
F850        F  0.95708202  0.11751029  0.98551665    -0.14500
F851        F  0.95524532  0.15886011  0.95755023    -0.14500
F852        F  0.84586937  0.07416914  0.96038724    -0.16000
C853        C  0.14054862  0.17448369  0.00064571     0.14100
C854        C  0.13529712  0.19607662  0.00055278     0.01100
C855        C  0.14086068  0.21178301  0.97973301     0.16000
C856        C  0.14931169  0.20463632  0.95888052     0.25500
C857        C  0.15255101  0.18162261  0.95841843    -0.40900
C858        C  0.14922553  0.16743990  0.97993069     0.32500
C859        C  0.12052193  0.19944229  0.02098896     0.01100
F860        F  0.13702876  0.23344710  0.97933207    -0.13200
F861        F  0.15291616  0.14570046  0.98079397    -0.13700
C862        C  0.13024263  0.20202683  0.04446246     0.16000
C863        C  0.11335808  0.19939079  0.06381444     0.25500
C864        C  0.08668716  0.19436582  0.05993774    -0.40800
C865        C  0.07774946  0.19374921  0.03662162     0.32400
C866        C  0.09450431  0.19633755  0.01730307     0.14100
F867        F  0.15555808  0.20584908  0.04863864    -0.13200
F868        F  0.05202791  0.18896226  0.03256648    -0.13700
F869        F  0.12227046  0.19986591  0.08628038    -0.16000
F870        F  0.08429964  0.19354962  0.99499216    -0.14500
F871        F  0.13530435  0.15876312  0.02037457    -0.14500
F872        F  0.15293014  0.21949690  0.93889508    -0.16000
C873        C  0.98014330  0.07719859  0.86147291     0.14100
C874        C  0.99668034  0.10615960  0.86347200     0.01100
C875        C  0.98369451  0.12142147  0.86502071     0.16000
C876        C  0.95478721  0.10800003  0.86577957     0.25500
C877        C  0.93809894  0.07884259  0.86530478    -0.40900
C878        C  0.95118434  0.06366504  0.86240101     0.32500
C879        C  0.02721177  0.12013262  0.86642912     0.01100
F880        F  0.99912134  0.14942909  0.86665073    -0.13200
F881        F  0.93603309  0.03561506  0.86126435    -0.13700
C882        C  0.04387506  0.11812357  0.84892569     0.16000
C883        C  0.07219764  0.12915583  0.85305491     0.25500
C884        C  0.08413954  0.14200851  0.87486202    -0.40800
C885        C  0.06769835  0.14489941  0.89194438     0.32400
C886        C  0.03959273  0.13422809  0.88773588     0.14100
F887        F  0.03253611  0.10478837  0.82813677    -0.13200
F888        F  0.07871702  0.15720036  0.91317241    -0.13700
F889        F  0.08746085  0.12550594  0.83650182    -0.16000
F890        F  0.02407595  0.13622896  0.90511851    -0.14500
F891        F  0.99206718  0.06184964  0.86008337    -0.14500
F892        F  0.94332328  0.12365137  0.86842355    -0.16000
C893        C  0.98861938  0.91118846  0.13088419     0.14100
C894        C  0.97448521  0.88346344  0.13835286     0.01100
C895        C  0.98941924  0.87032638  0.14149020     0.16000
C896        C  0.01788381  0.88450102  0.13659799     0.25500
C897        C  0.03194716  0.91220594  0.12861626    -0.40900
C898        C  0.01693826  0.92547264  0.12641579     0.32500
C899        C  0.94394013  0.86844016  0.14087047     0.01100
F900        F  0.97640009  0.84367053  0.14895148    -0.13200
F901        F  0.02927724  0.95207858  0.11891702    -0.13700
C902        C  0.92688262  0.84529473  0.12646830     0.16000
C903        C  0.89913883  0.83690911  0.12285691     0.25500
C904        C  0.88849023  0.85204908  0.13312988    -0.40800
C905        C  0.90453151  0.87277407  0.14986925     0.32400
C906        C  0.93189869  0.88056654  0.15401517     0.14100
F907        F  0.93769007  0.83268233  0.11392123    -0.13200
F908        F  0.89429857  0.88681905  0.16096750    -0.13700
F909        F  0.88374532  0.81606321  0.10728798    -0.16000
F910        F  0.94747957  0.90182104  0.16918405    -0.14500
F911        F  0.97467376  0.92417824  0.12661161    -0.14500
F912        F  0.03138739  0.87078549  0.13906130    -0.16000
C913        C  0.19332434  0.08794069  0.97840661     0.14100
C914        C  0.18766462  0.06119462  0.97311115     0.01100
C915        C  0.18507944  0.05285971  0.94917862     0.16000
C916        C  0.18558128  0.06999412  0.93110189     0.25500
C917        C  0.18929067  0.09583677  0.93671888    -0.40900
C918        C  0.19419670  0.10512435  0.96030407     0.32500
C919        C  0.18002474  0.04100175  0.99268892     0.01100
F920        F  0.18026310  0.02744480  0.94348334    -0.13200
F921        F  0.19729068  0.12983881  0.96602783    -0.13700
C922        C  0.15351171  0.01689128  0.99309679     0.16000
C923        C  0.14349675  0.00103207  0.01374215     0.25500
C924        C  0.15960240  0.00928602  0.03461100    -0.40800
C925        C  0.18702234  0.03208182  0.03352434     0.32400
C926        C  0.19716464  0.04765057  0.01268803     0.14100
F927        F  0.13631327  0.00985941  0.97414453    -0.13200
F928        F  0.20379317  0.03995993  0.05284071    -0.13700
F929        F  0.11727021  0.97870164  0.01363814    -0.16000
F930        F  0.22333370  0.07006137  0.01238352    -0.14500
F931        F  0.19523130  0.09641152  0.00130238    -0.14500
F932        F  0.18019477  0.06047059  0.90837334    -0.16000
C933        C  0.09329994  0.06204738  0.11019234     0.14100
C934        C  0.09608548  0.07104326  0.13379810     0.01100
C935        C  0.10882288  0.06273748  0.15033737     0.16000
C936        C  0.11804862  0.04503484  0.14331562     0.25500
C937        C  0.11459079  0.03539325  0.11961308    -0.40900
C938        C  0.10240816  0.04456225  0.10313863     0.32500
C939        C  0.08475202  0.08853011  0.14036618     0.01100
F940        F  0.11174193  0.07123485  0.17330483    -0.13200
F941        F  0.09905247  0.03652050  0.08001002    -0.13700
C942        C  0.05605973  0.07619297  0.14315677     0.16000
C943        C  0.04386020  0.09212632  0.14171058     0.25500
C944        C  0.06017008  0.12080112  0.13726377    -0.40800
C945        C  0.08924797  0.13348252  0.13699851     0.32400
C946        C  0.10136073  0.11741369  0.13839854     0.14100
F947        F  0.03962405  0.04832608  0.14542810    -0.13200
F948        F  0.10594477  0.16110002  0.13332607    -0.13700
F949        F  0.01589806  0.07915986  0.14330742    -0.16000
F950        F  0.12916869  0.12980294  0.13580544    -0.14500
F951        F  0.08129518  0.07003873  0.09387857    -0.14500
F952        F  0.12941049  0.03661240  0.15986186    -0.16000
C953        C  0.86443208  0.81578507  0.01584813     0.14100
C954        C  0.84294751  0.79676336  0.00104571     0.01100
C955        C  0.81537339  0.78558328  0.00829523     0.16000
C956        C  0.80941908  0.79370072  0.03000323     0.25500
C957        C  0.83103491  0.81352129  0.04450520    -0.40900
C958        C  0.85861908  0.82408062  0.03728317     0.32500
C959        C  0.85003638  0.79139806  0.97711449     0.01100
F960        F  0.79429644  0.76724225  0.99414939    -0.13200
F961        F  0.88019838  0.84274919  0.05085656    -0.13700
C962        C  0.86613735  0.77934060  0.97461643     0.16000
C963        C  0.87949812  0.78137092  0.95304411     0.25500
C964        C  0.87717306  0.79582040  0.93391139    -0.40800
C965        C  0.85939632  0.80597922  0.93587455     0.32400
C966        C  0.84568799  0.80353512  0.95725662     0.14100
F967        F  0.87068905  0.76762552  0.99364546    -0.13200
F968        F  0.85698334  0.82012302  0.91759788    -0.13700
F969        F  0.89698241  0.77187784  0.95167105    -0.16000
F970        F  0.83045156  0.81553203  0.95929051    -0.14500
F971        F  0.89123131  0.82738196  0.00896830    -0.14500
F972        F  0.78259745  0.78302302  0.03632697    -0.16000
C973        C  0.90489866  0.91384494  0.85446721     0.14100
C974        C  0.87597844  0.90020224  0.85632190     0.01100
C975        C  0.86043952  0.87127124  0.85822117     0.16000
C976        C  0.87363990  0.85628201  0.85952455     0.25500
C977        C  0.90280431  0.87004780  0.85925135    -0.40900
C978        C  0.91821544  0.89897795  0.85595808     0.32500
C979        C  0.86264849  0.91647511  0.85994411     0.01100
F980        F  0.83245412  0.85765258  0.86001939    -0.13200
F981        F  0.94629296  0.91315459  0.85530587    -0.13700
C982        C  0.86254762  0.93359451  0.84197858     0.16000
C983        C  0.85328748  0.95170293  0.84691794     0.25500
C984        C  0.84464293  0.95328043  0.87002313    -0.40800
C985        C  0.84351177  0.93515700  0.88756978     0.32400
C986        C  0.85224238  0.91681693  0.88253797     0.14100
F987        F  0.87231728  0.93343715  0.81996143    -0.13200
F988        F  0.83486657  0.93596465  0.90993467    -0.13700
F989        F  0.85466769  0.96904400  0.82967386    -0.16000
F990        F  0.85219659  0.90057878  0.90021530    -0.14500
F991        F  0.92040105  0.94185132  0.85294529    -0.14500
F992        F  0.85781841  0.82850957  0.86277539    -0.16000
C993        C  0.03072953  0.83453208  0.97397581     0.14100
C994        C  0.02747994  0.84857136  0.99309919     0.01100
C995        C  0.00864238  0.85742586  0.99097966     0.16000
C996        C  0.99403505  0.85320339  0.96991001     0.25500
C997        C  0.99825506  0.84041110  0.95025377    -0.40900
C998        C  0.01629804  0.83053846  0.95267804     0.32500
C999        C  0.04545644  0.85675329  0.01440260     0.01100
F1000       F  0.00554341  0.87168997  0.00889402    -0.13200
F1001       F  0.02001809  0.81707749  0.93445100    -0.13700
C1002       C  0.07424018  0.87492429  0.01203385     0.16000
C1003       C  0.09036399  0.88913024  0.03189980     0.25500
C1004       C  0.07785675  0.88532353  0.05424513    -0.40800
C1005       C  0.04967901  0.86516644  0.05699086     0.32400
C1006       C  0.03361849  0.85077471  0.03724433     0.14100
F1007       F  0.08618344  0.88132944  0.99017787    -0.13200
F1008       F  0.03714098  0.86161171  0.07841658    -0.13700
F1009       F  0.11740710  0.90901981  0.02882055    -0.16000
F1010       F  0.00600537  0.83289131  0.04010884    -0.14500
F1011       F  0.04815740  0.82503896  0.97585275    -0.14500
F1012       F  0.97690540  0.86310175  0.96839689    -0.16000
C1013       C  0.06880637  0.95237341  0.87270175     0.14100
C1014       C  0.06217066  0.96606446  0.85571383     0.01100
C1015       C  0.03813966  0.95079969  0.84192733     0.16000
C1016       C  0.02027630  0.92243999  0.84593328     0.25500
C1017       C  0.02607315  0.90924317  0.86399512    -0.40900
C1018       C  0.05071116  0.92417611  0.87697762     0.32500
C1019       C  0.07815467  0.99661803  0.85521003     0.01100
F1020       F  0.03129992  0.96366550  0.82551885    -0.13200
F1021       F  0.05643852  0.91175149  0.89468145    -0.13700
C1022       C  0.10599046  0.01137542  0.84815880     0.16000
C1023       C  0.12241725  0.03994691  0.85210940     0.25500
C1024       C  0.11126701  0.05417812  0.86349968    -0.40800
C1025       C  0.08272435  0.03943059  0.86893941     0.32400
C1026       C  0.06643396  0.01096651  0.86486674     0.14100
F1027       F  0.11748871  0.99788333  0.83826730    -0.13200
F1028       F  0.07073452  0.05206394  0.87958399    -0.13700
F1029       F  0.14945966  0.05336799  0.84561087    -0.16000
F1030       F  0.03956876  0.99702444  0.87197976    -0.14500
F1031       F  0.09171978  0.96679991  0.88643770    -0.14500
F1032       F  0.99629761  0.90830401  0.83347990    -0.16000
C1033       C  0.96012549  0.80933792  0.71034871     0.14100
C1034       C  0.97955906  0.81569449  0.72840097     0.01100
C1035       C  0.00703288  0.82477345  0.72202596     0.16000
C1036       C  0.01501426  0.82783554  0.69800866     0.25500
C1037       C  0.99559990  0.82175903  0.67978384    -0.40900
C1038       C  0.96793989  0.81232251  0.68642150     0.32500
C1039       C  0.97116621  0.81325988  0.75382393     0.01100
F1040       F  0.02635903  0.83137841  0.73912977    -0.13200
F1041       F  0.94821618  0.80625297  0.66982017    -0.13700
C1042       C  0.97428454  0.79570289  0.76928470     0.16000
C1043       C  0.96718423  0.79409114  0.79336909     0.25500
C1044       C  0.95656962  0.80984221  0.80246808    -0.40800
C1045       C  0.95251818  0.82665429  0.78679501     0.32400
C1046       C  0.95989013  0.82845954  0.76275672     0.14100
F1047       F  0.98391997  0.77983644  0.76096935    -0.13200
F1048       F  0.94256528  0.84231465  0.79494072    -0.13700
F1049       F  0.97035430  0.77680413  0.80775111    -0.16000
F1050       F  0.95683445  0.84578185  0.74832939    -0.14500
F1051       F  0.93333022  0.79998165  0.71590150    -0.14500
F1052       F  0.04180442  0.83698563  0.69270715    -0.16000
C1053       C  0.78076403  0.80294785  0.27647081     0.14100
C1054       C  0.80236042  0.81620112  0.26005290     0.01100
C1055       C  0.82959319  0.82579822  0.26721227     0.16000
C1056       C  0.83517405  0.82179032  0.29058524     0.25500
C1057       C  0.81346017  0.80796565  0.30717225    -0.40900
C1058       C  0.78614959  0.79880889  0.29978432     0.32500
C1059       C  0.79616310  0.81755210  0.23488437     0.01100
F1060       F  0.85073151  0.83878977  0.25141349    -0.13200
F1061       F  0.76440309  0.78549001  0.31495954    -0.13700
C1062       C  0.79394961  0.83946275  0.22625423     0.16000
C1063       C  0.78982748  0.84123300  0.20193926     0.25500
C1064       C  0.78808469  0.82115770  0.18603980    -0.40800
C1065       C  0.78894709  0.79853697  0.19506960     0.32400
C1066       C  0.79291445  0.79677708  0.21929484     0.14100
F1067       F  0.79676544  0.85958303  0.24122646    -0.13200
F1068       F  0.78650495  0.77836896  0.18034901    -0.13700
F1069       F  0.78932519  0.86343446  0.19378842    -0.16000
F1070       F  0.79426907  0.77508717  0.22755060    -0.14500
F1071       F  0.75430410  0.79346093  0.26972677    -0.14500
F1072       F  0.86180159  0.83151651  0.29689298    -0.16000
C1073       C  0.91598080  0.78001282  0.44935703     0.14100
C1074       C  0.91417769  0.78821599  0.47256376     0.01100
C1075       C  0.89486273  0.79581241  0.47764949     0.16000
C1076       C  0.87877561  0.79690144  0.45955411     0.25500
C1077       C  0.88162690  0.79033576  0.43601793    -0.40900
C1078       C  0.89956537  0.78085230  0.43112648     0.32500
C1079       C  0.93487926  0.79321633  0.49087034     0.01100
F1080       F  0.89324162  0.80439792  0.49983367    -0.13200
F1081       F  0.90303589  0.77490157  0.40847319    -0.13700
C1082       C  0.95943937  0.81922701  0.49182664     0.16000
C1083       C  0.97598487  0.82736728  0.51213846     0.25500
C1084       C  0.96823998  0.80958714  0.53183455    -0.40800
C1085       C  0.94493369  0.78262266  0.53004739     0.32400
C1086       C  0.92814233  0.77461189  0.50974343     0.14100
F1087       F  0.96612098  0.83763340  0.47388669    -0.13200
F1088       F  0.93697713  0.76501599  0.54875237    -0.13700
F1089       F  0.99878907  0.85327823  0.51311534    -0.16000
F1090       F  0.90428993  0.74950626  0.50918660    -0.14500
F1091       F  0.93481079  0.77291687  0.44413824    -0.14500
F1092       F  0.86171987  0.80628670  0.46470878    -0.16000
C1093       C  0.81434609  0.00591702  0.71677028     0.14100
C1094       C  0.81111120  0.98873299  0.73584163     0.01100
C1095       C  0.80420093  0.96144999  0.73144588     0.16000
C1096       C  0.80055518  0.95146935  0.70808516     0.25500
C1097       C  0.80336577  0.96860051  0.68890854    -0.40900
C1098       C  0.81057701  0.99603998  0.69355087     0.32500
C1099       C  0.81507263  0.99953801  0.76029094     0.01100
F1100       F  0.80123443  0.94462855  0.74978459    -0.13200
F1101       F  0.81451187  0.01364272  0.67556820    -0.13700
C1102       C  0.79256310  0.98911356  0.77592023     0.16000
C1103       C  0.79627359  0.99933418  0.79909914     0.25500
C1104       C  0.82278569  0.02008934  0.80715522    -0.40800
C1105       C  0.84511336  0.03118177  0.79100503     0.32400
C1106       C  0.84122232  0.02097384  0.76778445     0.14100
F1107       F  0.76689045  0.96915288  0.76862350    -0.13200
F1108       F  0.87090310  0.05141724  0.79773655    -0.13700
F1109       F  0.77383577  0.98867162  0.81361418    -0.16000
F1110       F  0.86314942  0.03158812  0.75269308    -0.14500
F1111       F  0.82084492  0.03227421  0.72069442    -0.14500
F1112       F  0.79383381  0.92503151  0.70429892    -0.16000
C1113       C  0.79986570  0.85296725  0.53819081     0.14100
C1114       C  0.77806184  0.84551026  0.52218275     0.01100
C1115       C  0.75791636  0.85203407  0.52800841     0.16000
C1116       C  0.76092807  0.86775197  0.54842804     0.25500
C1117       C  0.78387605  0.87671971  0.56339502    -0.40900
C1118       C  0.80244984  0.86795256  0.55867425     0.32500
C1119       C  0.77903717  0.83456182  0.49832598     0.01100
F1120       F  0.73613211  0.84441111  0.51331375    -0.13200
F1121       F  0.82446991  0.87566787  0.57314692    -0.13700
C1122       C  0.78448720  0.81310934  0.49611930     0.16000
C1123       C  0.79269232  0.80781902  0.47424553     0.25500
C1124       C  0.79431051  0.82298380  0.45403044    -0.40800
C1125       C  0.78628888  0.84249761  0.45569114     0.32400
C1126       C  0.77919458  0.84859994  0.47768301     0.14100
F1127       F  0.78316604  0.79818583  0.51542405    -0.13200
F1128       F  0.78770450  0.85746052  0.43636830    -0.13700
F1129       F  0.79962649  0.78832837  0.47289401    -0.16000
F1130       F  0.77488313  0.86992158  0.47902797    -0.14500
F1131       F  0.82026707  0.84802294  0.53300847    -0.14500
F1132       F  0.74282862  0.87611459  0.55241790    -0.16000
C1133       C  0.90608841  0.91801398  0.63397325     0.14100
C1134       C  0.89315825  0.88906173  0.63323898     0.01100
C1135       C  0.86425623  0.87255034  0.63459148     0.16000
C1136       C  0.84833067  0.88465696  0.63448985     0.25500
C1137       C  0.86113050  0.91366528  0.63302659    -0.40900
C1138       C  0.89020128  0.93024044  0.63398528     0.32500
C1139       C  0.90954765  0.87623500  0.62833355     0.01100
F1140       F  0.85138324  0.84454721  0.63474083    -0.13200
F1141       F  0.90332868  0.95826485  0.63368624    -0.13700
C1142       C  0.93182970  0.88175836  0.64301732     0.16000
C1143       C  0.94936113  0.87250445  0.63650117     0.25500
C1144       C  0.94452822  0.85719720  0.61548937    -0.40800
C1145       C  0.92152488  0.85044242  0.60139279     0.32400
C1146       C  0.90421666  0.86008135  0.60767634     0.14100
F1147       F  0.93706217  0.89680153  0.66325895    -0.13200
F1148       F  0.91716533  0.83650671  0.58060631    -0.13700
F1149       F  0.97167966  0.87926849  0.65024950    -0.16000
F1150       F  0.88337996  0.85525572  0.59274862    -0.14500
F1151       F  0.93407552  0.93448945  0.63289896    -0.14500
F1152       F  0.82037225  0.86773718  0.63397697    -0.16000
C1153       C  0.16507101  0.00818703  0.21323316     0.14100
C1154       C  0.15103756  0.98798861  0.23072402     0.01100
C1155       C  0.13315565  0.96029940  0.22392432     0.16000
C1156       C  0.12953394  0.95286339  0.19985624     0.25500
C1157       C  0.14414354  0.97302246  0.18226194    -0.40900
C1158       C  0.16173869  0.00082219  0.18924356     0.32500
C1159       C  0.15572122  0.99589554  0.25607215     0.01100
F1160       F  0.11906474  0.94053122  0.24062205    -0.13200
F1161       F  0.17534106  0.02108694  0.17283418    -0.13700
C1162       C  0.14779048  0.01360755  0.26553857     0.16000
C1163       C  0.15301790  0.02177208  0.28938757     0.25500
C1164       C  0.16637834  0.01236682  0.30420658    -0.40800
C1165       C  0.17446742  0.99470935  0.29446753     0.32400
C1166       C  0.16912211  0.98655959  0.27064904     0.14100
F1167       F  0.13455430  0.02263278  0.25171760    -0.13200
F1168       F  0.18782443  0.98546163  0.30785942    -0.13700
F1169       F  0.14436835  0.03833397  0.29803693    -0.16000
F1170       F  0.17750945  0.96991805  0.26163984    -0.14500
F1171       F  0.18239741  0.03507099  0.21945700    -0.14500
F1172       F  0.11208741  0.92593275  0.19384383    -0.16000
C1173       C  0.10063291  0.89540041  0.50836148     0.14100
C1174       C  0.12491201  0.92109278  0.51244821     0.01100
C1175       C  0.13348467  0.92980184  0.53596535     0.16000
C1176       C  0.11622322  0.91479661  0.55502606     0.25500
C1177       C  0.09022675  0.89093033  0.55065237    -0.40900
C1178       C  0.08351799  0.88034247  0.52733664     0.32500
C1179       C  0.13738584  0.94091425  0.49257950     0.01100
F1180       F  0.15737611  0.95415631  0.54028620    -0.13200
F1181       F  0.05918355  0.85652332  0.52267328    -0.13700
C1182       C  0.13619989  0.96499746  0.49309793     0.16000
C1183       C  0.14266236  0.98143285  0.47292012     0.25500
C1184       C  0.15006024  0.97389133  0.45156788    -0.40800
C1185       C  0.15277601  0.95058622  0.45144778     0.32400
C1186       C  0.14645373  0.93422649  0.47181494     0.14100
F1187       F  0.12650495  0.97141811  0.51261330    -0.13200
F1188       F  0.16065178  0.94306124  0.43143533    -0.13700
F1189       F  0.13963035  0.00359252  0.47395053    -0.16000
F1190       F  0.14805998  0.91121833  0.47098665    -0.14500
F1191       F  0.09184945  0.88636579  0.48585947    -0.14500
F1192       F  0.12363254  0.92522637  0.57735871    -0.16000
C1193       C  0.97348857  0.91242005  0.37866598     0.14100
C1194       C  0.98704285  0.90429694  0.36273807     0.01100
C1195       C  0.97122324  0.88200317  0.34725615     0.16000
C1196       C  0.94225358  0.86664204  0.34907659     0.25500
C1197       C  0.92874215  0.87357646  0.36628753    -0.40900
C1198       C  0.94468661  0.89731389  0.38041187     0.32500
C1199       C  0.01744717  0.91735251  0.36450630     0.01100
F1200       F  0.98386446  0.87408900  0.33142106    -0.13200
F1201       F  0.93265691  0.90472090  0.39733555    -0.13700
C1202       C  0.02881442  0.91552633  0.38604991     0.16000
C1203       C  0.05733665  0.93095916  0.38963649     0.25500
C1204       C  0.07516677  0.94834394  0.37165871    -0.40800
C1205       C  0.06405206  0.94860876  0.34940056     0.32400
C1206       C  0.03526512  0.93323045  0.34586774     0.14100
F1207       F  0.01208572  0.89959022  0.40404720    -0.13200
F1208       F  0.08079551  0.96545402  0.33182606    -0.13700
F1209       F  0.06752918  0.92981329  0.41112531    -0.16000
F1210       F  0.02473791  0.93528126  0.32488944    -0.14500
F1211       F  0.98833098  0.93427288  0.39348733    -0.14500
F1212       F  0.92750804  0.84444294  0.33459512    -0.16000
C1213       C  0.16461519  0.14726130  0.76899710     0.14100
C1214       C  0.17336300  0.17341612  0.75955965     0.01100
C1215       C  0.18604906  0.19658508  0.77467551     0.16000
C1216       C  0.18884506  0.19345870  0.79910478     0.25500
C1217       C  0.17916907  0.16702031  0.80886297    -0.40900
C1218       C  0.16758402  0.14404890  0.79326470     0.32500
C1219       C  0.16809918  0.17605748  0.73412108     0.01100
F1220       F  0.19510718  0.22217517  0.76585754    -0.13200
F1221       F  0.15835548  0.11817920  0.80148574    -0.13700
C1222       C  0.14107036  0.16659921  0.72635800     0.16000
C1223       C  0.13551750  0.16756631  0.70221849     0.25500
C1224       C  0.15694615  0.17785979  0.68516436    -0.40800
C1225       C  0.18416224  0.18756208  0.69316265     0.32400
C1226       C  0.18962031  0.18672999  0.71737191     0.14100
F1227       F  0.11992870  0.15619753  0.74225940    -0.13200
F1228       F  0.20562888  0.19778564  0.67760192    -0.13700
F1229       F  0.10897859  0.15776798  0.69556939    -0.16000
F1230       F  0.21587561  0.19571574  0.72440286    -0.14500
F1231       F  0.15290385  0.12465827  0.75462629    -0.14500
F1232       F  0.20093765  0.21633387  0.81314357    -0.16000
C1233       C  0.20622036  0.15311074  0.51402766     0.14100
C1234       C  0.18928892  0.14189839  0.49390474     0.01100
C1235       C  0.16243273  0.13724184  0.49450621     0.16000
C1236       C  0.15200194  0.14203819  0.51531222     0.25500
C1237       C  0.16825776  0.15162001  0.53609777    -0.40900
C1238       C  0.19589561  0.15809395  0.53490087     0.32500
C1239       C  0.19739594  0.13078757  0.47367280     0.01100
F1240       F  0.14550392  0.12604874  0.47538903    -0.13200
F1241       F  0.21279616  0.16864428  0.55408376    -0.13700
C1242       C  0.19876099  0.10704488  0.47720216     0.16000
C1243       C  0.19783471  0.09115011  0.45778165     0.25500
C1244       C  0.19591248  0.09894491  0.43458208    -0.40800
C1245       C  0.19753395  0.12419465  0.43086282     0.32400
C1246       C  0.19826682  0.14006879  0.45033983     0.14100
F1247       F  0.19784347  0.09755961  0.49951088    -0.13200
F1248       F  0.19559418  0.13201702  0.40853465    -0.13700
F1249       F  0.19597254  0.06665319  0.46171096    -0.16000
F1250       F  0.19761677  0.16329893  0.44649171    -0.14500
F1251       F  0.23246323  0.15836540  0.51367959    -0.14500
F1252       F  0.12534536  0.13558049  0.51540737    -0.16000
C1253       C  0.99606911  0.07135714  0.63579070     0.14100
C1254       C  0.98088954  0.08447454  0.63479442     0.01100
C1255       C  0.99511014  0.11336868  0.63292843     0.16000
C1256       C  0.02388576  0.12880847  0.63050791     0.25500
C1257       C  0.03906762  0.11555750  0.62948583    -0.40900
C1258       C  0.02491565  0.08673618  0.63307346     0.32500
C1259       C  0.95040212  0.06793873  0.63204502     0.01100
F1260       F  0.98089771  0.12651738  0.63219111    -0.13200
F1261       F  0.03883488  0.07327680  0.63309220    -0.13700
C1262       C  0.93301220  0.05008747  0.65004442     0.16000
C1263       C  0.90447316  0.03269779  0.64600638     0.25500
C1264       C  0.89317424  0.03270245  0.62379407    -0.40800
C1265       C  0.91049133  0.05130021  0.60619404     0.32400
C1266       C  0.93877163  0.06883375  0.61031803     0.14100
F1267       F  0.94380966  0.04890759  0.67117769    -0.13200
F1268       F  0.90013410  0.05162346  0.58454709    -0.13700
F1269       F  0.88829236  0.01442803  0.66306510    -0.16000
F1270       F  0.95514296  0.08556479  0.59250956    -0.14500
F1271       F  0.98278419  0.04342571  0.63774573    -0.14500
F1272       F  0.03653450  0.15656048  0.62752017    -0.16000
C1273       C  0.05758441  0.97895901  0.62738279     0.14100
C1274       C  0.08390073  0.99455438  0.63770147     0.01100
C1275       C  0.09658824  0.98092885  0.64687874     0.16000
C1276       C  0.08418904  0.95226289  0.64371525     0.25500
C1277       C  0.05929803  0.93723563  0.63096761    -0.40900
C1278       C  0.04544094  0.95055794  0.62391532     0.32500
C1279       C  0.09999306  0.02475521  0.63378289     0.01100
F1280       F  0.12197022  0.99570270  0.65705407    -0.13200
F1281       F  0.02096853  0.93635760  0.61215097    -0.13700
C1282       C  0.10076012  0.04340149  0.65069692     0.16000
C1283       C  0.11259452  0.07142851  0.64481509     0.25500
C1284       C  0.12327141  0.08082947  0.62184513    -0.40800
C1285       C  0.12333362  0.06225504  0.60534628     0.32400
C1286       C  0.11201001  0.03454139  0.61133917     0.14100
F1287       F  0.08875321  0.03420334  0.67231337    -0.13200
F1288       F  0.13349911  0.07079307  0.58307258    -0.13700
F1289       F  0.11164843  0.08885987  0.66083003    -0.16000
F1290       F  0.11138126  0.01678389  0.59474982    -0.14500
F1291       F  0.04482018  0.99171369  0.61870218    -0.14500
F1292       F  0.09781759  0.93980757  0.65089417    -0.16000
C1293       C  0.00909428  0.16716708  0.23098146     0.14100
C1294       C  0.98575453  0.16798233  0.23788587     0.01100
C1295       C  0.97090884  0.17279068  0.22078318     0.16000
C1296       C  0.97960275  0.17734860  0.19710337     0.25500
C1297       C  0.00340894  0.17711782  0.19005550    -0.40900
C1298       C  0.01785411  0.17163153  0.20730588     0.32500
C1299       C  0.97773376  0.16501650  0.26315793     0.01100
F1300       F  0.94826964  0.17363786  0.22712605    -0.13200
F1301       F  0.04042858  0.17048916  0.20138114    -0.13700
C1302       C  0.99623002  0.18433516  0.27972997     0.16000
C1303       C  0.98980246  0.18091666  0.30388200     0.25500
C1304       C  0.96462731  0.15812959  0.31189948    -0.40800
C1305       C  0.94551818  0.13940988  0.29516441     0.32400
C1306       C  0.95209408  0.14281013  0.27092265     0.14100
F1307       F  0.02067432  0.20648232  0.27245841    -0.13200
F1308       F  0.92119313  0.11703243  0.30233594    -0.13700
F1309       F  0.00831836  0.19987625  0.31946621    -0.16000
F1310       F  0.93397575  0.12382005  0.25514324    -0.14500
F1311       F  0.02330836  0.16182241  0.24723985    -0.14500
F1312       F  0.96446621  0.18179678  0.18114005    -0.16000
C1313       C  0.83851620  0.04417756  0.45701554     0.14100
C1314       C  0.84710397  0.05073794  0.48074950     0.01100
C1315       C  0.87275789  0.07460897  0.48593333     0.16000
C1316       C  0.89057240  0.09043318  0.46760738     0.25500
C1317       C  0.88299020  0.08265437  0.44377521    -0.40900
C1318       C  0.85629473  0.06011903  0.43858609     0.32500
C1319       C  0.83221309  0.03059057  0.49987686     0.01100
F1320       F  0.88161890  0.08121584  0.50875889    -0.13200
F1321       F  0.84828831  0.05203865  0.41577968    -0.13700
C1322       C  0.83133359  0.00543072  0.49957457     0.16000
C1323       C  0.82458315  0.98950342  0.52013801     0.25500
C1324       C  0.81886372  0.99867412  0.54145959    -0.40800
C1325       C  0.81693479  0.02246887  0.54094891     0.32400
C1326       C  0.82367963  0.03832649  0.52029846     0.14100
F1327       F  0.83962297  0.99759405  0.48000529    -0.13200
F1328       F  0.81007278  0.03135119  0.56072838    -0.13700
F1329       F  0.82579620  0.96626392  0.51949004    -0.16000
F1330       F  0.82365867  0.06222127  0.52066316    -0.14500
F1331       F  0.81364991  0.02133128  0.45171511    -0.14500
F1332       F  0.91587362  0.11251194  0.47322082    -0.16000
C1333       C  0.01718715  0.15669877  0.49571773     0.14100
C1334       C  0.03591252  0.18501724  0.49944943     0.01100
C1335       C  0.03767429  0.20413975  0.48269793     0.16000
C1336       C  0.02182183  0.19487706  0.46181353     0.25500
C1337       C  0.00450677  0.16630938  0.45726800    -0.40900
C1338       C  0.00169596  0.14740257  0.47485947     0.32500
C1339       C  0.05567355  0.19352772  0.51936513     0.01100
F1340       F  0.05538179  0.23164668  0.48622789    -0.13200
F1341       F  0.98441950  0.11974092  0.47164915    -0.13700
C1342       C  0.08210982  0.19805420  0.51496109     0.16000
C1343       C  0.09804205  0.19765892  0.53370497     0.25500
C1344       C  0.08785811  0.19309530  0.55706993    -0.40800
C1345       C  0.06251945  0.19103643  0.56169687     0.32400
C1346       C  0.04644044  0.19115363  0.54292492     0.14100
F1347       F  0.09115921  0.19986244  0.49227952    -0.13200
F1348       F  0.05219554  0.18628353  0.58413101    -0.13700
F1349       F  0.12216943  0.19904353  0.52881161    -0.16000
F1350       F  0.02088709  0.18659522  0.54752068    -0.14500
F1351       F  0.01508586  0.13787407  0.51176189    -0.14500
F1352       F  0.02460038  0.21375692  0.44553642    -0.16000
C1353       C  0.85724765  0.99478153  0.35679788     0.14100
C1354       C  0.87177745  0.98099114  0.35606652     0.01100
C1355       C  0.90081334  0.99653353  0.35573825     0.16000
C1356       C  0.91511406  0.02532077  0.35806349     0.25500
C1357       C  0.90063162  0.03907208  0.36019101    -0.40900
C1358       C  0.87161451  0.02371948  0.35861147     0.32500
C1359       C  0.85737667  0.95106175  0.36123319     0.01100
F1360       F  0.91524560  0.98359391  0.35547267    -0.13200
F1361       F  0.85714476  0.03642964  0.36144070    -0.13700
C1362       C  0.84920243  0.93113028  0.34314899     0.16000
C1363       C  0.83868620  0.90324571  0.34892828     0.25500
C1364       C  0.83653103  0.89515399  0.37289774    -0.40800
C1365       C  0.84360341  0.91519346  0.39085012     0.32400
C1366       C  0.85398498  0.94276462  0.38504349     0.14100
F1367       F  0.85246499  0.93886953  0.31999493    -0.13200
F1368       F  0.84143220  0.90833380  0.41420563    -0.13700
F1369       F  0.83235868  0.88463269  0.33114750    -0.16000
F1370       F  0.86206949  0.96176532  0.40277744    -0.14500
F1371       F  0.82919325  0.98006499  0.35787271    -0.14500
F1372       F  0.94305725  0.03957956  0.36017968    -0.16000
C1373       C  0.07118254  0.06893248  0.37635972     0.14100
C1374       C  0.08112638  0.09278849  0.36251244     0.01100
C1375       C  0.10654074  0.10365947  0.35061346     0.16000
C1376       C  0.12198526  0.09091071  0.35285929     0.25500
C1377       C  0.11216647  0.06714068  0.36711684    -0.40900
C1378       C  0.08634083  0.05618305  0.37858555     0.32500
C1379       C  0.06441805  0.10580941  0.36116637     0.01100
F1380       F  0.11628646  0.12647852  0.33680694    -0.13200
F1381       F  0.07604398  0.03368030  0.39290565    -0.13700
C1382       C  0.07260176  0.13053128  0.37347421     0.16000
C1383       C  0.05350953  0.13870214  0.37773117     0.25500
C1384       C  0.02599038  0.12208003  0.36981835    -0.40800
C1385       C  0.01885078  0.09890000  0.35546173     0.32400
C1386       C  0.03782125  0.09077743  0.35130578     0.14100
F1387       F  0.09827945  0.14541477  0.38311593    -0.13200
F1388       F  0.99300698  0.08330724  0.34630741    -0.13700
F1389       F  0.06127849  0.16144255  0.39129821    -0.16000
F1390       F  0.02962997  0.06706856  0.33902411    -0.14500
F1391       F  0.04695639  0.05838538  0.38844604    -0.14500
F1392       F  0.14642827  0.10178438  0.34110487    -0.16000
C1393       C  0.45936647  0.61855638  0.20294024     0.14100
C1394       C  0.45538949  0.60243905  0.18257653     0.01100
C1395       C  0.44140207  0.57344223  0.18482520     0.16000
C1396       C  0.42902402  0.56073448  0.20645946     0.25500
C1397       C  0.43079323  0.57693433  0.22606022    -0.40900
C1398       C  0.44719843  0.60586069  0.22449639     0.32500
C1399       C  0.46177241  0.61560830  0.15876443     0.01100
F1400       F  0.43796275  0.55740494  0.16560774    -0.13200
F1401       F  0.44921772  0.62182489  0.24335640    -0.13700
C1402       C  0.48810398  0.63870304  0.15353612     0.16000
C1403       C  0.49263671  0.65325531  0.13226710     0.25500
C1404       C  0.47113167  0.64449266  0.11575037    -0.40800
C1405       C  0.44511556  0.62110609  0.12059008     0.32400
C1406       C  0.44035276  0.60692861  0.14200888     0.14100
F1407       F  0.50925150  0.64740908  0.16919814    -0.13200
F1408       F  0.42392934  0.61283559  0.10503143    -0.13700
F1409       F  0.51787553  0.67604043  0.12787413    -0.16000
F1410       F  0.41434677  0.58567684  0.14695639    -0.14500
F1411       F  0.47248795  0.64651663  0.20145291    -0.14500
F1412       F  0.41285381  0.53273190  0.20749802    -0.16000
C1413       C  0.62883439  0.75273139  0.05231892     0.14100
C1414       C  0.63465598  0.73906947  0.06985331     0.01100
C1415       C  0.61313188  0.71381874  0.07886405     0.16000
C1416       C  0.58575584  0.70325969  0.07147539     0.25500
C1417       C  0.57957813  0.71791414  0.05493613    -0.40900
C1418       C  0.60171802  0.74233091  0.04485639     0.32500
C1419       C  0.66245153  0.75353164  0.08077834     0.01100
F1420       F  0.61843324  0.70020001  0.09573875    -0.13200
F1421       F  0.59723091  0.75699878  0.02842556    -0.13700
C1422       C  0.67041623  0.77710577  0.09465873     0.16000
C1423       C  0.69754778  0.79348072  0.10272339     0.25500
C1424       C  0.71736522  0.78656845  0.09717503    -0.40800
C1425       C  0.70909687  0.76214599  0.08420040     0.32400
C1426       C  0.68175695  0.74577187  0.07593827     0.14100
F1427       F  0.65191353  0.78465699  0.09988731    -0.13200
F1428       F  0.72775618  0.75498185  0.07842718    -0.13700
F1429       F  0.70449873  0.81630000  0.11591289    -0.16000
F1430       F  0.67446231  0.72314108  0.06236357    -0.14500
F1431       F  0.64945121  0.77702690  0.04318139    -0.14500
F1432       F  0.56530634  0.67933178  0.08124607    -0.16000
C1433       C  0.30007525  0.50021003  0.16667835     0.14100
C1434       C  0.27561260  0.47401723  0.16644024     0.01100
C1435       C  0.26891817  0.45673551  0.18629312     0.16000
C1436       C  0.28526552  0.46627079  0.20676278     0.25500
C1437       C  0.30865944  0.49338737  0.20773795    -0.40900
C1438       C  0.31655920  0.50975473  0.18703614     0.32500
C1439       C  0.25537157  0.46671500  0.14701672     0.01100
F1440       F  0.24579848  0.43102862  0.18620694    -0.13200
F1441       F  0.33923645  0.53576090  0.18684689    -0.13700
C1442       C  0.26296646  0.46711944  0.12314723     0.16000
C1443       C  0.24577896  0.46596844  0.10479462     0.25500
C1444       C  0.22091867  0.46475243  0.11013654    -0.40800
C1445       C  0.21235278  0.46200702  0.13400277     0.32400
C1446       C  0.22943193  0.46302469  0.15225663     0.14100
F1447       F  0.28777988  0.47030338  0.11766724    -0.13200
F1448       F  0.18822757  0.46023805  0.13977971    -0.13700
F1449       F  0.25471618  0.46865247  0.08198995    -0.16000
F1450       F  0.22167797  0.46291585  0.17514262    -0.14500
F1451       F  0.30690592  0.51750058  0.14783445    -0.14500
F1452       F  0.27750500  0.44925544  0.22588701    -0.16000
C1453       C  0.36011321  0.61542367  0.02024611     0.14100
C1454       C  0.35275309  0.58807567  0.01584324     0.01100
C1455       C  0.37336893  0.58147457  0.01512872     0.16000
C1456       C  0.40073438  0.60154978  0.02076625     0.25500
C1457       C  0.40747768  0.62818625  0.02760723    -0.40900
C1458       C  0.38724452  0.63527349  0.02639820     0.32500
C1459       C  0.32376968  0.56604581  0.01957765     0.01100
F1460       F  0.36644147  0.55499395  0.01122162    -0.13200
F1461       F  0.39342939  0.66103917  0.03248506    -0.13700
C1462       C  0.30299559  0.56025163  0.00294293     0.16000
C1463       C  0.27505350  0.54285373  0.00917518     0.25500
C1464       C  0.26788477  0.53192376  0.03231085    -0.40800
C1465       C  0.28893312  0.53694167  0.04842559     0.32400
C1466       C  0.31653820  0.55371775  0.04206315     0.14100
F1467       F  0.30976134  0.57230342  0.98118105    -0.13200
F1468       F  0.28283772  0.52633483  0.07075277    -0.13700
F1469       F  0.25514139  0.53819241  0.99323993    -0.16000
F1470       F  0.33635371  0.55960373  0.05854027    -0.14500
F1471       F  0.34042161  0.62213166  0.02117174    -0.14500
F1472       F  0.41994172  0.59423233  0.02187040    -0.16000
C1473       C  0.04396916  0.29014095  0.07281602     0.14100
C1474       C  0.06248948  0.31245043  0.08738799     0.01100
C1475       C  0.06841109  0.30658472  0.11009601     0.16000
C1476       C  0.05700025  0.27907408  0.11767800     0.25500
C1477       C  0.03906484  0.25659869  0.10283010    -0.40900
C1478       C  0.03217007  0.26259752  0.08049871     0.32500
C1479       C  0.07765258  0.34152200  0.07806590     0.01100
F1480       F  0.08622468  0.32755662  0.12461621    -0.13200
F1481       F  0.01498556  0.24179488  0.06555545    -0.13700
C1482       C  0.07289657  0.36188520  0.08708532     0.16000
C1483       C  0.08851321  0.38947438  0.07886061     0.25500
C1484       C  0.10954877  0.39735691  0.06174216    -0.40800
C1485       C  0.11394393  0.37675536  0.05264586     0.32400
C1486       C  0.09810336  0.34927858  0.06054082     0.14100
F1487       F  0.05346887  0.35515191  0.10418553    -0.13200
F1488       F  0.13417890  0.38338226  0.03635029    -0.13700
F1489       F  0.08422393  0.40877488  0.08869309    -0.16000
F1490       F  0.10359018  0.33035474  0.05174843    -0.14500
F1491       F  0.03773500  0.29505822  0.05083025    -0.14500
F1492       F  0.06371820  0.27447533  0.13959062    -0.16000
C1493       C  0.24248595  0.59352635  0.29341587     0.14100
C1494       C  0.22894842  0.56595414  0.30100222     0.01100
C1495       C  0.20055057  0.55194461  0.30608289     0.16000
C1496       C  0.18557818  0.56493957  0.30256095     0.25500
C1497       C  0.19876899  0.59216395  0.29350862    -0.40900
C1498       C  0.22765317  0.60653178  0.28968507     0.32500
C1499       C  0.24391407  0.55108503  0.30023937     0.01100
F1500       F  0.18715411  0.52532008  0.31365969    -0.13200
F1501       F  0.24156388  0.63285864  0.28134579    -0.13700
C1502       C  0.26493468  0.55702332  0.31669144     0.16000
C1503       C  0.28247049  0.54684086  0.31303824     0.25500
C1504       C  0.27942845  0.53106222  0.29268080    -0.40800
C1505       C  0.25764604  0.52416803  0.27685151     0.32400
C1506       C  0.23982760  0.53382865  0.28075151     0.14100
F1507       F  0.26938991  0.57390222  0.33550489    -0.13200
F1508       F  0.25468340  0.50941948  0.25683330    -0.13700
F1509       F  0.30386604  0.55438680  0.32818904    -0.16000
F1510       F  0.21990982  0.52816966  0.26447258    -0.14500
F1511       F  0.26991456  0.60735817  0.28817919    -0.14500
F1512       F  0.15797713  0.55034288  0.30705318    -0.16000
C1513       C  0.10427537  0.54772467  0.18327863     0.14100
C1514       C  0.10840856  0.52566115  0.18683033     0.01100
C1515       C  0.11136101  0.51868279  0.21011500     0.16000
C1516       C  0.11363978  0.53559010  0.22921560     0.25500
C1517       C  0.11285276  0.55952731  0.22521985    -0.40900
C1518       C  0.10665311  0.56469199  0.20240703     0.32500
C1519       C  0.11692977  0.51516927  0.16651328     0.01100
F1520       F  0.11504761  0.49724422  0.21395032    -0.13200
F1521       F  0.10577033  0.58774978  0.19825955    -0.13700
C1522       C  0.14475866  0.52285883  0.16497001     0.16000
C1523       C  0.15470937  0.51674542  0.14470324     0.25500
C1524       C  0.13704337  0.50277039  0.12539118    -0.40800
C1525       C  0.10878774  0.49382095  0.12735402     0.32400
C1526       C  0.09885699  0.50024348  0.14773665     0.14100
F1527       F  0.16278378  0.53778615  0.18265548    -0.13200
F1528       F  0.09115790  0.48029247  0.10907979    -0.13700
F1529       F  0.18195114  0.52522436  0.14377122    -0.16000
F1530       F  0.07187153  0.49259415  0.14889041    -0.14500
F1531       F  0.10130033  0.55481290  0.16095855    -0.14500
F1532       F  0.11969885  0.53034142  0.25115322    -0.16000
C1533       C  0.33953907  0.75604848  0.28391695     0.14100
C1534       C  0.32519296  0.76897006  0.29057023     0.01100
C1535       C  0.34011479  0.79691007  0.29727638     0.16000
C1536       C  0.36909865  0.81219411  0.29590404     0.25500
C1537       C  0.38358071  0.79968160  0.28771806    -0.40900
C1538       C  0.36836912  0.77109452  0.28262354     0.32500
C1539       C  0.29479616  0.75360793  0.28784535     0.01100
F1540       F  0.32657829  0.80971872  0.30391559    -0.13200
F1541       F  0.38116027  0.75777657  0.27528244    -0.13700
C1542       C  0.27704614  0.74316928  0.30760969     0.16000
C1543       C  0.24859286  0.72426864  0.30440037     0.25500
C1544       C  0.23774332  0.71560096  0.28135342    -0.40800
C1545       C  0.25541809  0.72795073  0.26164398     0.32400
C1546       C  0.28361007  0.74669450  0.26489674     0.14100
F1547       F  0.28750621  0.75001800  0.32994706    -0.13200
F1548       F  0.24555873  0.72127351  0.23908363    -0.13700
F1549       F  0.23210225  0.71311590  0.32377403    -0.16000
F1550       F  0.30032494  0.75726416  0.24555298    -0.14500
F1551       F  0.32541395  0.72890341  0.27765532    -0.14500
F1552       F  0.38277979  0.83946663  0.30169179    -0.16000
C1553       C  0.52262192  0.76839453  0.14965182     0.14100
C1554       C  0.53716939  0.79739327  0.14822992     0.01100
C1555       C  0.54920158  0.81029570  0.12643290     0.16000
C1556       C  0.54448770  0.79435311  0.10589598     0.25500
C1557       C  0.52762579  0.76544717  0.10705075    -0.40900
C1558       C  0.51786796  0.75258770  0.12921433     0.32500
C1559       C  0.53532404  0.81331118  0.16828760     0.01100
F1560       F  0.56392296  0.83829432  0.12479014    -0.13200
F1561       F  0.50206855  0.72460018  0.13080497    -0.13700
C1562       C  0.54341321  0.81097833  0.19128607     0.16000
C1563       C  0.53598536  0.82092115  0.21090694     0.25500
C1564       C  0.52023153  0.83335818  0.20784663    -0.40800
C1565       C  0.51389598  0.83737351  0.18461508     0.32400
C1566       C  0.52126637  0.82734434  0.16506589     0.14100
F1567       F  0.55717345  0.79767113  0.19485417    -0.13200
F1568       F  0.49943046  0.84988749  0.18080852    -0.13700
F1569       F  0.54249271  0.81645784  0.23296603    -0.16000
F1570       F  0.51265390  0.82937984  0.14309779    -0.14500
F1571       F  0.51068169  0.75526978  0.17037239    -0.14500
F1572       F  0.55415841  0.80713477  0.08464268    -0.16000
C1573       C  0.44564232  0.72905996  0.31736185     0.14100
C1574       C  0.44475488  0.71058254  0.30016928     0.01100
C1575       C  0.45685982  0.72066296  0.27780540     0.16000
C1576       C  0.46877820  0.74855985  0.27232661     0.25500
C1577       C  0.46901409  0.76701990  0.28916687    -0.40900
C1578       C  0.45796099  0.75725333  0.31195592     0.32500
C1579       C  0.43026323  0.68048598  0.30453530     0.01100
F1580       F  0.45591908  0.70313066  0.26081878    -0.13200
F1581       F  0.45744181  0.77458193  0.32835114    -0.13700
C1582       C  0.40123505  0.66438978  0.30463682     0.16000
C1583       C  0.38748680  0.63551399  0.30283869     0.25500
C1584       C  0.40264414  0.62229567  0.30090732    -0.40800
C1585       C  0.43175392  0.63855462  0.30285075     0.32400
C1586       C  0.44533860  0.66732862  0.30450574     0.14100
F1587       F  0.38625559  0.67675283  0.30463382    -0.13200
F1588       F  0.44739608  0.62696138  0.30133977    -0.13700
F1589       F  0.35942393  0.62070594  0.30174554    -0.16000
F1590       F  0.47342517  0.68257336  0.30452446    -0.14500
F1591       F  0.43400959  0.71967221  0.33907045    -0.14500
F1592       F  0.47938456  0.75744936  0.25021313    -0.16000
C1593       C  0.22772016  0.94592483  0.06800591     0.14100
C1594       C  0.23097963  0.92746935  0.08216048     0.01100
C1595       C  0.21704676  0.91906559  0.10407700     0.16000
C1596       C  0.19925429  0.92791547  0.11125454     0.25500
C1597       C  0.19510673  0.94561590  0.09673890    -0.40900
C1598       C  0.21012268  0.95505788  0.07525974     0.32500
C1599       C  0.24691501  0.91504822  0.07341085     0.01100
F1600       F  0.21971730  0.90121331  0.11811490    -0.13200
F1601       F  0.20685177  0.97213886  0.06069275    -0.13700
C1602       C  0.26976742  0.91838818  0.08610958     0.16000
C1603       C  0.28245254  0.90374689  0.07947085     0.25500
C1604       C  0.27233264  0.88514930  0.06005803    -0.40800
C1605       C  0.25024907  0.88298209  0.04669959     0.32400
C1606       C  0.23778059  0.89777792  0.05329558     0.14100
F1607       F  0.27947357  0.93547318  0.10528278    -0.13200
F1608       F  0.24016017  0.86602885  0.02746831    -0.13700
F1609       F  0.30388698  0.90696822  0.09273614    -0.16000
F1610       F  0.21577011  0.89413632  0.04065827    -0.14500
F1611       F  0.24125818  0.95475059  0.04692197    -0.14500
F1612       F  0.18584839  0.91885568  0.13237274    -0.16000
C1613       C  0.25547928  0.68406440  0.04277738     0.14100
C1614       C  0.22649778  0.66637547  0.04374165     0.01100
C1615       C  0.21014123  0.67828291  0.04384371     0.16000
C1616       C  0.22251121  0.70719259  0.04416953     0.25500
C1617       C  0.25160247  0.72490708  0.04474689    -0.40900
C1618       C  0.26786004  0.71287070  0.04341480     0.32500
C1619       C  0.21384490  0.63585762  0.04672651     0.01100
F1620       F  0.18216148  0.66194902  0.04508293    -0.13200
F1621       F  0.29590603  0.72896662  0.04321569    -0.13700
C1622       C  0.22272514  0.62612109  0.06549629     0.16000
C1623       C  0.21264809  0.59792780  0.06793569     0.25500
C1624       C  0.19292942  0.57841460  0.05197969    -0.40800
C1625       C  0.18300174  0.58779972  0.03373258     0.32400
C1626       C  0.19348476  0.61635144  0.03105063     0.14100
F1627       F  0.24133483  0.64403282  0.08161692    -0.13200
F1628       F  0.16435755  0.56958701  0.01782402    -0.13700
F1629       F  0.22236561  0.58961807  0.08604604    -0.16000
F1630       F  0.18460775  0.62501155  0.01259537    -0.14500
F1631       F  0.27196044  0.67337298  0.04178853    -0.14500
F1632       F  0.20589175  0.71769989  0.04532896    -0.16000
C1633       C  0.17692002  0.69823846  0.16437562     0.14100
C1634       C  0.17718718  0.72310499  0.16626815     0.01100
C1635       C  0.16866369  0.72921913  0.18762118     0.16000
C1636       C  0.16173089  0.71175030  0.20722623     0.25500
C1637       C  0.16298017  0.68759199  0.20582409    -0.40900
C1638       C  0.16959024  0.68050088  0.18385404     0.32500
C1639       C  0.18956370  0.74390052  0.14699656     0.01100
F1640       F  0.16805953  0.75271505  0.18977728    -0.13200
F1641       F  0.17079146  0.65735293  0.18152862    -0.13700
C1642       C  0.18098406  0.73633474  0.12329622     0.16000
C1643       C  0.19724151  0.75343337  0.10465930     0.25500
C1644       C  0.22198694  0.77835214  0.10956730    -0.40800
C1645       C  0.22889498  0.78738139  0.13313753     0.32400
C1646       C  0.21286215  0.77026003  0.15179222     0.14100
F1647       F  0.15809821  0.71141885  0.11819212    -0.13200
F1648       F  0.25277717  0.81152603  0.13808342    -0.13700
F1649       F  0.19049432  0.74426765  0.08192075    -0.16000
F1650       F  0.22187193  0.77822781  0.17441981    -0.14500
F1651       F  0.18574481  0.69204459  0.14417520    -0.14500
F1652       F  0.15477973  0.71914094  0.22784032    -0.16000
C1653       C  0.36128655  0.86345810  0.16725142     0.14100
C1654       C  0.38943801  0.88317879  0.16362931     0.01100
C1655       C  0.39834268  0.89565559  0.14132194     0.16000
C1656       C  0.37986840  0.88692857  0.12229327     0.25500
C1657       C  0.35206887  0.86510638  0.12518760    -0.40900
C1658       C  0.34269121  0.85448394  0.14820695     0.32500
C1659       C  0.40995304  0.88587896  0.18120301     0.01100
F1660       F  0.42548732  0.91479530  0.13753037    -0.13200
F1661       F  0.31598884  0.83411743  0.15206883    -0.13700
C1662       C  0.42465469  0.87284009  0.17632890     0.16000
C1663       C  0.44010355  0.87017253  0.19407876     0.25500
C1664       C  0.44123506  0.88057881  0.21703979    -0.40800
C1665       C  0.42862374  0.89587596  0.22137012     0.32400
C1666       C  0.41273802  0.89824576  0.20353894     0.14100
F1667       F  0.42216812  0.86064433  0.15489173    -0.13200
F1668       F  0.42963105  0.90632964  0.24333526    -0.13700
F1669       F  0.45249068  0.85572454  0.18927977    -0.16000
F1670       F  0.39898227  0.91131614  0.20838053    -0.14500
F1671       F  0.35231875  0.85103024  0.18873753    -0.14500
F1672       F  0.38992506  0.89845702  0.10066987    -0.16000
C1673       C  0.41254019  0.75706924  0.02667441     0.14100
C1674       C  0.42702489  0.78518952  0.03298311     0.01100
C1675       C  0.45533485  0.79843360  0.03833512     0.16000
C1676       C  0.46865071  0.78349038  0.03845492     0.25500
C1677       C  0.45377201  0.75486180  0.03345202    -0.40900
C1678       C  0.42572483  0.74203502  0.02696598     0.32500
C1679       C  0.41159803  0.79933524  0.03712714     0.01100
F1680       F  0.46979836  0.82561540  0.04445320    -0.13200
F1681       F  0.41074697  0.71468752  0.02162051    -0.13700
C1682       C  0.40855417  0.80623690  0.06045075     0.16000
C1683       C  0.39039560  0.81523109  0.06539671     0.25500
C1684       C  0.37500313  0.81774369  0.04707200    -0.40800
C1685       C  0.37934808  0.81250707  0.02347888     0.32400
C1686       C  0.39739883  0.80318653  0.01857562     0.14100
F1687       F  0.42190215  0.80259925  0.07871848    -0.13200
F1688       F  0.36472159  0.81450883  0.00540588    -0.13700
F1689       F  0.38720914  0.82066608  0.08832211    -0.16000
F1690       F  0.40031060  0.79699254  0.99584437    -0.14500
F1691       F  0.38507715  0.74369783  0.02174862    -0.14500
F1692       F  0.49560642  0.79668745  0.04514926    -0.16000
C1693       C  0.50913904  0.81772851  0.42843036     0.14100
C1694       C  0.50111676  0.83672546  0.42340583     0.01100
C1695       C  0.49641230  0.85008953  0.44211847     0.16000
C1696       C  0.49965000  0.84459034  0.46565864     0.25500
C1697       C  0.50740069  0.82532345  0.47091480    -0.40900
C1698       C  0.51202550  0.81185069  0.45202228     0.32500
C1699       C  0.49822300  0.84320947  0.39863213     0.01100
F1700       F  0.48884632  0.86866373  0.43751621    -0.13200
F1701       F  0.51966129  0.79327309  0.45633913    -0.13700
C1702       C  0.47197682  0.83394351  0.38902301     0.16000
C1703       C  0.46933843  0.84034519  0.36554927     0.25500
C1704       C  0.49302765  0.85627414  0.35136505    -0.40800
C1705       C  0.51936864  0.86607195  0.36142512     0.32400
C1706       C  0.52185628  0.85942594  0.38476720     0.14100
F1707       F  0.44888204  0.81814913  0.40225620    -0.13200
F1708       F  0.54287150  0.88209929  0.34871392    -0.13700
F1709       F  0.44360195  0.83018266  0.35654127    -0.16000
F1710       F  0.54742185  0.86898729  0.39394357    -0.14500
F1711       F  0.51390811  0.80471299  0.41046317    -0.14500
F1712       F  0.49438478  0.85757080  0.48331142    -0.16000
C1713       C  0.68573066  0.91597097  0.57557595     0.14100
C1714       C  0.66438955  0.89977797  0.59176619     0.01100
C1715       C  0.67109636  0.89748851  0.61532507     0.16000
C1716       C  0.69885861  0.91032483  0.62226367     0.25500
C1717       C  0.72023178  0.92581923  0.60576793    -0.40900
C1718       C  0.71336248  0.92887611  0.58248293     0.32500
C1719       C  0.63545204  0.88392442  0.58324636     0.01100
F1720       F  0.65084334  0.88191668  0.63129474    -0.13200
F1721       F  0.73340614  0.94306149  0.56597030    -0.13700
C1722       C  0.62837909  0.86480732  0.56469027     0.16000
C1723       C  0.60198834  0.85145790  0.55476532     0.25500
C1724       C  0.58178797  0.85672412  0.56333421    -0.40800
C1725       C  0.58863017  0.87512305  0.58268367     0.32400
C1726       C  0.61527099  0.88861159  0.59251123     0.14100
F1727       F  0.64718954  0.85900037  0.55616258    -0.13200
F1728       F  0.56967345  0.88018746  0.59210576    -0.13700
F1729       F  0.59635825  0.83321582  0.53679485    -0.16000
F1730       F  0.62154608  0.90673967  0.61069744    -0.14500
F1731       F  0.67973848  0.91869783  0.55277994    -0.14500
F1732       F  0.70484476  0.90742170  0.64501818    -0.16000
C1733       C  0.50158403  0.66155223  0.93900846     0.14100
C1734       C  0.48783298  0.66991250  0.92386908     0.01100
C1735       C  0.47964186  0.68779193  0.93247303     0.16000
C1736       C  0.48509828  0.69716100  0.95608487     0.25500
C1737       C  0.49910048  0.68893946  0.97137099    -0.40900
C1738       C  0.50728553  0.67099375  0.96244991     0.32500
C1739       C  0.48402678  0.66149010  0.89863909     0.01100
F1740       F  0.46612616  0.69592661  0.91802059    -0.13200
F1741       F  0.52110980  0.66266003  0.97630046    -0.13700
C1742       C  0.46464167  0.63415325  0.89183151     0.16000
C1743       C  0.46248420  0.62606912  0.86796237     0.25500
C1744       C  0.48014187  0.64513134  0.85067548    -0.40800
C1745       C  0.49951224  0.67251901  0.85771572     0.32400
C1746       C  0.50129671  0.68058511  0.88143518     0.14100
F1747       F  0.44788962  0.61533442  0.90832820    -0.13200
F1748       F  0.51642607  0.69177268  0.84156460    -0.13700
F1749       F  0.44356456  0.59952154  0.86187846    -0.16000
F1750       F  0.52033383  0.70701099  0.88776171    -0.14500
F1751       F  0.51004494  0.64462582  0.93087726    -0.14500
F1752       F  0.47607899  0.71366627  0.96407612    -0.16000
C1753       C  0.54429719  0.75020266  0.62872841     0.14100
C1754       C  0.52400056  0.72326540  0.63600449     0.01100
C1755       C  0.50085956  0.70733919  0.62131735     0.16000
C1756       C  0.49704814  0.71871224  0.60088988     0.25500
C1757       C  0.51581549  0.74650690  0.59495024    -0.40900
C1758       C  0.54015785  0.76183489  0.60839246     0.32500
C1759       C  0.52439417  0.71291702  0.66017346     0.01100
F1760       F  0.48058539  0.68142775  0.62770880    -0.13200
F1761       F  0.55887450  0.78862531  0.60293114    -0.13700
C1762       C  0.52596919  0.72847626  0.68034969     0.16000
C1763       C  0.51931639  0.71630685  0.70288283     0.25500
C1764       C  0.51014589  0.68821006  0.70549752    -0.40800
C1765       C  0.51059475  0.67323743  0.68576100     0.32400
C1766       C  0.51825653  0.68567280  0.66336014     0.14100
F1767       F  0.53125425  0.75460025  0.67803310    -0.13200
F1768       F  0.50248168  0.64621441  0.68802282    -0.13700
F1769       F  0.51906988  0.73119611  0.72171824    -0.16000
F1770       F  0.51798251  0.67054535  0.64449212    -0.14500
F1771       F  0.56746079  0.76568720  0.64193899    -0.14500
F1772       F  0.47411210  0.70282416  0.58749256    -0.16000
C1773       C  0.17235739  0.69483354  0.43693426     0.14100
C1774       C  0.15015773  0.66937953  0.42861752     0.01100
C1775       C  0.13019149  0.65104752  0.44487907     0.16000
C1776       C  0.13276467  0.65760092  0.46908088     0.25500
C1777       C  0.15537241  0.68274849  0.47762093    -0.40900
C1778       C  0.17492144  0.70150950  0.46121748     0.32500
C1779       C  0.14776991  0.66197920  0.40300164     0.01100
F1780       F  0.10806823  0.62674755  0.43729596    -0.13200
F1781       F  0.19728848  0.72560486  0.46878754    -0.13700
C1782       C  0.14714889  0.63800268  0.39546495     0.16000
C1783       C  0.14533048  0.63138560  0.37121745     0.25500
C1784       C  0.14404969  0.64864452  0.35397553    -0.40800
C1785       C  0.14423957  0.67244189  0.36177202     0.32400
C1786       C  0.14603102  0.67892558  0.38594421     0.14100
F1787       F  0.14875325  0.62118176  0.41159779    -0.13200
F1788       F  0.14283755  0.68974723  0.34605681    -0.13700
F1789       F  0.14472287  0.60802761  0.36472788    -0.16000
F1790       F  0.14562946  0.70167171  0.39275363    -0.14500
F1791       F  0.19215211  0.71278010  0.42161497    -0.14500
F1792       F  0.11308211  0.63916313  0.48423594    -0.16000
C1793       C  0.37444214  0.78283812  0.50741417     0.14100
C1794       C  0.35948617  0.78559866  0.52606109     0.01100
C1795       C  0.37282686  0.79730747  0.54771537     0.16000
C1796       C  0.39997205  0.80400324  0.55136748     0.25500
C1797       C  0.41435563  0.79959553  0.53328174    -0.40900
C1798       C  0.40190141  0.79007563  0.51093813     0.32500
C1799       C  0.32902194  0.77158831  0.52493700     0.01100
F1800       F  0.35873436  0.79994425  0.56603672    -0.13200
F1801       F  0.41541803  0.78549290  0.49330969    -0.13700
C1802       C  0.31312925  0.74264422  0.52677785     0.16000
C1803       C  0.28467012  0.72906320  0.53077476     0.25500
C1804       C  0.27148205  0.74408524  0.53233200    -0.40800
C1805       C  0.28705163  0.77292987  0.52921080     0.32400
C1806       C  0.31578326  0.78667037  0.52579128     0.14100
F1807       F  0.32555705  0.72772630  0.52653234    -0.13200
F1808       F  0.27481125  0.78792636  0.53135570    -0.13700
F1809       F  0.27013647  0.70131225  0.53432181    -0.16000
F1810       F  0.33085877  0.81470005  0.52448836    -0.14500
F1811       F  0.36185453  0.77150433  0.48637838    -0.14500
F1812       F  0.41174397  0.81330950  0.57306486    -0.16000
C1813       C  0.07038484  0.77643740  0.56649887     0.14100
C1814       C  0.06387598  0.75237637  0.57892116     0.01100
C1815       C  0.04509849  0.74367988  0.59802426     0.16000
C1816       C  0.03377816  0.75947186  0.60514315     0.25500
C1817       C  0.04152157  0.78435915  0.59344838    -0.40900
C1818       C  0.05943357  0.79232472  0.57372893     0.32500
C1819       C  0.08043798  0.73954171  0.57442577     0.01100
F1820       F  0.03911028  0.72087079  0.61064643    -0.13200
F1821       F  0.06684783  0.81595442  0.56173434    -0.13700
C1822       C  0.10765439  0.75309222  0.58284799     0.16000
C1823       C  0.12470429  0.74287720  0.57776342     0.25500
C1824       C  0.11507932  0.71881216  0.56378074    -0.40800
C1825       C  0.08742571  0.70478809  0.55572127     0.32400
C1826       C  0.07024611  0.71515502  0.56100105     0.14100
F1827       F  0.11791867  0.77667960  0.59584242    -0.13200
F1828       F  0.07731799  0.68171129  0.54207558    -0.13700
F1829       F  0.15082158  0.75678929  0.58663198    -0.16000
F1830       F  0.04402278  0.70193266  0.55242422    -0.14500
F1831       F  0.08848358  0.78525985  0.54801861    -0.14500
F1832       F  0.01689483  0.75152607  0.62442098    -0.16000
C1833       C  0.35568167  0.87088801  0.89769955     0.14100
C1834       C  0.33689107  0.84470329  0.90745531     0.01100
C1835       C  0.32651484  0.82112234  0.89299026     0.16000
C1836       C  0.33359041  0.82371218  0.86898712     0.25500
C1837       C  0.35170011  0.84988055  0.85902460    -0.40900
C1838       C  0.36323457  0.87342352  0.87364778     0.32500
C1839       C  0.32759603  0.84179427  0.93251654     0.01100
F1840       F  0.30937803  0.79549904  0.90211510    -0.13200
F1841       F  0.38044570  0.89892274  0.86436912    -0.13700
C1842       C  0.29915869  0.82775572  0.93806742     0.16000
C1843       C  0.29033322  0.82418286  0.96175443     0.25500
C1844       C  0.30980081  0.83528061  0.98019088    -0.40800
C1845       C  0.33820401  0.84965818  0.97463521     0.32400
C1846       C  0.34700504  0.85252577  0.95104799     0.14100
F1847       F  0.27993155  0.81795494  0.92050150    -0.13200
F1848       F  0.35751400  0.86038317  0.99213141    -0.13700
F1849       F  0.26284463  0.81076486  0.96663737    -0.16000
F1850       F  0.37449578  0.86522175  0.94635303    -0.14500
F1851       F  0.36574557  0.89408589  0.91118386    -0.14500
F1852       F  0.32254425  0.80053752  0.85533532    -0.16000
C1853       C  0.47263282  0.86026791  0.64236135     0.14100
C1854       C  0.46041818  0.84149712  0.66116946     0.01100
C1855       C  0.45583844  0.81479002  0.65879619     0.16000
C1856       C  0.46272564  0.80670826  0.63766424     0.25500
C1857       C  0.47428543  0.82522966  0.61839448    -0.40900
C1858       C  0.47962511  0.85232893  0.62122053     0.32500
C1859       C  0.44991519  0.84873152  0.68231522     0.01100
F1860       F  0.44322687  0.79599850  0.67649089    -0.13200
F1861       F  0.49108445  0.87109194  0.60337860    -0.13700
C1862       C  0.42789663  0.85306976  0.67978921     0.16000
C1863       C  0.41513670  0.85603989  0.69982563     0.25500
C1864       C  0.42405232  0.85457454  0.72279431    -0.40800
C1865       C  0.44733010  0.85215773  0.72531776     0.32400
C1866       C  0.46008516  0.84908771  0.70515630     0.14100
F1867       F  0.41739466  0.85235035  0.65795626    -0.13200
F1868       F  0.45614247  0.85025100  0.74722898    -0.13700
F1869       F  0.39285545  0.85860914  0.69682916    -0.16000
F1870       F  0.48152638  0.84516685  0.70792645    -0.14500
F1871       F  0.47721696  0.88618307  0.64431249    -0.14500
F1872       F  0.45675536  0.78028452  0.63577065    -0.16000
C1873       C  0.45084026  0.79598776  0.81235870     0.14100
C1874       C  0.43590565  0.76703923  0.80997299     0.01100
C1875       C  0.40695670  0.75270835  0.80830153     0.16000
C1876       C  0.39332315  0.76720494  0.80688669     0.25500
C1877       C  0.40837129  0.79626970  0.80748512    -0.40900
C1878       C  0.43710033  0.81054557  0.81134931     0.32500
C1879       C  0.45017494  0.75211648  0.80437284     0.01100
F1880       F  0.39215488  0.72476964  0.80578484    -0.13200
F1881       F  0.45215723  0.83861603  0.81163201    -0.13700
C1882       C  0.45192220  0.73478058  0.82109135     0.16000
C1883       C  0.46081453  0.71692083  0.81405258     0.25500
C1884       C  0.46730090  0.71569309  0.79005587    -0.40800
C1885       C  0.46680864  0.73408770  0.77368990     0.32400
C1886       C  0.45852096  0.75224528  0.78083594     0.14100
F1887       F  0.44378789  0.73423969  0.84390091    -0.13200
F1888       F  0.47351269  0.73385655  0.75053236    -0.13700
F1889       F  0.46106375  0.69940836  0.83026857    -0.16000
F1890       F  0.45689676  0.76877087  0.76438385    -0.14500
F1891       F  0.47885584  0.81020476  0.81389337    -0.14500
F1892       F  0.36557129  0.75294646  0.80316454    -0.16000
C1893       C  0.26387830  0.80238501  0.62932484     0.14100
C1894       C  0.25714587  0.79296337  0.65282069     0.01100
C1895       C  0.23320860  0.76718502  0.65733658     0.16000
C1896       C  0.21715210  0.75021016  0.63852932     0.25500
C1897       C  0.22475514  0.75877980  0.61477748    -0.40900
C1898       C  0.24764817  0.78558370  0.61042314     0.32500
C1899       C  0.27722805  0.80725921  0.67224011     0.01100
F1900       F  0.22657387  0.75758531  0.67995691    -0.13200
F1901       F  0.25571031  0.79471113  0.58785320    -0.13700
C1902       C  0.27300310  0.82241175  0.68973917     0.16000
C1903       C  0.28910908  0.83096501  0.71050747     0.25500
C1904       C  0.30906023  0.82377158  0.71410380    -0.40800
C1905       C  0.31462274  0.81055775  0.69565425     0.32400
C1906       C  0.29886530  0.80241260  0.67492509     0.14100
F1907       F  0.25243898  0.82767538  0.68720722    -0.13200
F1908       F  0.33457914  0.80438380  0.69816713    -0.13700
F1909       F  0.28378183  0.84432581  0.72775632    -0.16000
F1910       F  0.30343963  0.78800110  0.65814322    -0.14500
F1911       F  0.28712333  0.82715536  0.62464573    -0.14500
F1912       F  0.19489502  0.72483341  0.64357624    -0.16000
C1913       C  0.13048983  0.47001993  0.88836488     0.14100
C1914       C  0.14334891  0.49327809  0.90335277     0.01100
C1915       C  0.15203247  0.51941588  0.89373999     0.16000
C1916       C  0.14822215  0.52230959  0.86953463     0.25500
C1917       C  0.13550736  0.49903252  0.85432510    -0.40900
C1918       C  0.12656653  0.47279684  0.86416948     0.32500
C1919       C  0.14705823  0.49012684  0.92910838     0.01100
F1920       F  0.16472184  0.54229946  0.90775855    -0.13200
F1921       F  0.11364591  0.44963536  0.85050524    -0.13700
C1922       C  0.16353829  0.47981416  0.93664965     0.16000
C1923       C  0.16650584  0.47635135  0.96095915     0.25500
C1924       C  0.15286069  0.48298708  0.97830072    -0.40800
C1925       C  0.13663955  0.49369007  0.97053096     0.32400
C1926       C  0.13381788  0.49717587  0.94629164     0.14100
F1927       F  0.17729599  0.47367882  0.92042876    -0.13200
F1928       F  0.12321804  0.50071354  0.98634696    -0.13700
F1929       F  0.18335190  0.46721836  0.96745925    -0.16000
F1930       F  0.11767249  0.50706162  0.93955441    -0.14500
F1931       F  0.12117787  0.44442914  0.89731564    -0.14500
F1932       F  0.15757595  0.54806764  0.86096406    -0.16000
C1933       C  0.12475457  0.60094294  0.70134473     0.14100
C1934       C  0.10827483  0.58400936  0.68258505     0.01100
C1935       C  0.09216559  0.55517185  0.68587010     0.16000
C1936       C  0.09417000  0.54337164  0.70708233     0.25500
C1937       C  0.11263316  0.56034042  0.72492300    -0.40900
C1938       C  0.12699206  0.58921157  0.72227502     0.32500
C1939       C  0.11268128  0.59642185  0.65867923     0.01100
F1940       F  0.07615831  0.53843980  0.66790458    -0.13200
F1941       F  0.14514755  0.60599596  0.73919714    -0.13700
C1942       C  0.12805451  0.59151065  0.64198580     0.16000
C1943       C  0.13893636  0.60821677  0.62190445     0.25500
C1944       C  0.13420722  0.62983783  0.61787481    -0.40800
C1945       C  0.11702387  0.63340571  0.63360013     0.32400
C1946       C  0.10663214  0.61701846  0.65407642     0.14100
F1947       F  0.13437967  0.57190285  0.64608226    -0.13200
F1948       F  0.11196322  0.65397569  0.63005426    -0.13700
F1949       F  0.15484408  0.60375411  0.60671962    -0.16000
F1950       F  0.09191305  0.62216600  0.67005800    -0.14500
F1951       F  0.14106669  0.62874097  0.69838661    -0.14500
F1952       F  0.08041105  0.51542255  0.70913918    -0.16000
C1953       C  0.26736116  0.71062275  0.81799672     0.14100
C1954       C  0.24326076  0.69805176  0.80412601     0.01100
C1955       C  0.23771119  0.71448328  0.78935308     0.16000
C1956       C  0.25723702  0.74276132  0.78693735     0.25500
C1957       C  0.28261934  0.75469456  0.79901345    -0.40900
C1958       C  0.28698321  0.73871381  0.81536730     0.32500
C1959       C  0.22640356  0.66760781  0.80226588     0.01100
F1960       F  0.21464269  0.70270139  0.77561347    -0.13200
F1961       F  0.31102479  0.74997577  0.82774763    -0.13700
C1962       C  0.19819686  0.65286157  0.80806141     0.16000
C1963       C  0.18218179  0.62422690  0.80448752     0.25500
C1964       C  0.19417277  0.60988121  0.79486322    -0.40800
C1965       C  0.22275232  0.62483713  0.78973224     0.32400
C1966       C  0.23858524  0.65335167  0.79331860     0.14100
F1967       F  0.18610873  0.66627053  0.81691248    -0.13200
F1968       F  0.23538396  0.61221640  0.78029109    -0.13700
F1969       F  0.15482786  0.61078045  0.80990983    -0.16000
F1970       F  0.26570870  0.66732345  0.78696341    -0.14500
F1971       F  0.27269553  0.69523577  0.83290070    -0.14500
F1972       F  0.25257230  0.75772238  0.77095865    -0.16000
C1973       C  0.26745348  0.55675708  0.80907204     0.14100
C1974       C  0.28343963  0.55146167  0.79337571     0.01100
C1975       C  0.27041946  0.53275766  0.77449116     0.16000
C1976       C  0.24204060  0.52059073  0.77064621     0.25500
C1977       C  0.22616170  0.52637194  0.78599926    -0.40900
C1978       C  0.23890413  0.54409825  0.80550292     0.32500
C1979       C  0.31394354  0.56692151  0.79525443     0.01100
F1980       F  0.28552378  0.52755650  0.75896876    -0.13200
F1981       F  0.22406472  0.55074539  0.81998743    -0.13700
C1982       C  0.32762283  0.55290760  0.80004359     0.16000
C1983       C  0.35639686  0.56652807  0.79804508     0.25500
C1984       C  0.37209796  0.59447108  0.79075259    -0.40800
C1985       C  0.35834090  0.60892478  0.78752432     0.32400
C1986       C  0.32952644  0.59522038  0.78977082     0.14100
F1987       F  0.31294260  0.52567072  0.80585112    -0.13200
F1988       F  0.37247357  0.63595660  0.78105704    -0.13700
F1989       F  0.36861624  0.55185125  0.80229773    -0.16000
F1990       F  0.31664141  0.60917458  0.78511973    -0.14500
F1991       F  0.27967170  0.57487960  0.82732583    -0.14500
F1992       F  0.23020716  0.50399880  0.75139634    -0.16000
C1993       C  0.33465149  0.49660838  0.44657381     0.14100
C1994       C  0.31638340  0.48935258  0.42739811     0.01100
C1995       C  0.28773571  0.47541764  0.43178837     0.16000
C1996       C  0.27753501  0.46897102  0.45509795     0.25500
C1997       C  0.29583476  0.47583944  0.47427516    -0.40900
C1998       C  0.32448861  0.48963988  0.46975196     0.32500
C1999       C  0.32718981  0.49538909  0.40277449     0.01100
F2000       F  0.26969084  0.46820374  0.41346611    -0.13200
F2001       F  0.34281812  0.49693804  0.48785336    -0.13700
C2002       C  0.32022051  0.47357151  0.38694521     0.16000
C2003       C  0.32977918  0.47894017  0.36351156     0.25500
C2004       C  0.34655423  0.50637629  0.35535165    -0.40800
C2005       C  0.35432419  0.52826301  0.37155787     0.32400
C2006       C  0.34469315  0.52277155  0.39506439     0.14100
F2007       F  0.30424004  0.44694245  0.39428934    -0.13200
F2008       F  0.37037302  0.55499660  0.36450781    -0.13700
F2009       F  0.32253768  0.45714517  0.34883434    -0.16000
F2010       F  0.35178027  0.54421488  0.41013266    -0.14500
F2011       F  0.36237281  0.51000981  0.44279615    -0.14500
F2012       F  0.24981056  0.45537255  0.45886032    -0.16000
C2013       C  0.20455606  0.53849318  0.51865974     0.14100
C2014       C  0.21738189  0.56492734  0.52900801     0.01100
C2015       C  0.24261911  0.57532812  0.54090756     0.16000
C2016       C  0.25480529  0.55959219  0.54273861     0.25500
C2017       C  0.24190281  0.53277540  0.53280906    -0.40900
C2018       C  0.21671941  0.52250280  0.52050380     0.32500
C2019       C  0.20453888  0.58182325  0.52846433     0.01100
F2020       F  0.25496280  0.60045077  0.55174648    -0.13200
F2021       F  0.20370200  0.49693448  0.51049540    -0.13700
C2022       C  0.18019050  0.57366097  0.54137276     0.16000
C2023       C  0.17157645  0.59240433  0.54533274     0.25500
C2024       C  0.18750259  0.61963776  0.53674277    -0.40800
C2025       C  0.21057812  0.62694626  0.52223026     0.32400
C2026       C  0.21897578  0.60818662  0.51810258     0.14100
F2027       F  0.16611532  0.54840218  0.55182527    -0.13200
F2028       F  0.22573009  0.65272959  0.51286315    -0.13700
F2029       F  0.14912733  0.58467653  0.55927170    -0.16000
F2030       F  0.24223094  0.61630009  0.50515219    -0.14500
F2031       F  0.18023507  0.52817188  0.50689528    -0.14500
F2032       F  0.27860640  0.57027407  0.55540805    -0.16000
C2033       C  0.38657399  0.52100594  0.70232554     0.14100
C2034       C  0.38909942  0.53184719  0.67938838     0.01100
C2035       C  0.40898028  0.55974424  0.67507725     0.16000
C2036       C  0.42467941  0.57709174  0.69374562     0.25500
C2037       C  0.42116359  0.56672004  0.71695964    -0.40900
C2038       C  0.40278313  0.53834868  0.72102920     0.32500
C2039       C  0.36862216  0.51584589  0.66064133     0.01100
F2040       F  0.41153545  0.57068478  0.65310744    -0.13200
F2041       F  0.39874062  0.52802250  0.74339868    -0.13700
C2042       C  0.34259195  0.51305396  0.66161399     0.16000
C2043       C  0.32527418  0.50390356  0.64172546     0.25500
C2044       C  0.33372388  0.49732707  0.62036063    -0.40800
C2045       C  0.35911495  0.49830986  0.62011117     0.32400
C2046       C  0.37645248  0.50769864  0.64003535     0.14100
F2047       F  0.33487154  0.52131200  0.68127889    -0.13200
F2048       F  0.36794580  0.49157176  0.60023220    -0.13700
F2049       F  0.30108913  0.50330963  0.64304613    -0.16000
F2050       F  0.40155555  0.51021087  0.63882363    -0.14500
F2051       F  0.36738205  0.49408240  0.70680894    -0.14500
F2052       F  0.44211357  0.60448130  0.68944639    -0.16000
C2053       C  0.20205985  0.45494877  0.64548638     0.14100
C2054       C  0.17821586  0.45615503  0.64173360     0.01100
C2055       C  0.16897675  0.45501630  0.61830642     0.16000
C2056       C  0.18434488  0.45445223  0.59900067     0.25500
C2057       C  0.20875162  0.45445857  0.60293173    -0.40900
C2058       C  0.21704958  0.45393739  0.62624118     0.32500
C2059       C  0.16535171  0.46187980  0.66218409     0.01100
F2060       F  0.14597749  0.45600595  0.61411727    -0.13200
F2061       F  0.24118459  0.45506708  0.63031062    -0.13700
C2062       C  0.16375259  0.48574993  0.66235203     0.16000
C2063       C  0.15666250  0.49413380  0.68316505     0.25500
C2064       C  0.15167161  0.47916718  0.70449476    -0.40800
C2065       C  0.15142879  0.45422176  0.70379744     0.32400
C2066       C  0.15802900  0.44563002  0.68281364     0.14100
F2067       F  0.17113313  0.50221814  0.64287436    -0.13200
F2068       F  0.14599330  0.43863863  0.72363248    -0.13700
F2069       F  0.15642806  0.51791331  0.68262549    -0.16000
F2070       F  0.15851726  0.42198842  0.68291445    -0.14500
F2071       F  0.21234137  0.45736093  0.66772293    -0.14500
F2072       F  0.17675896  0.45631666  0.57654937    -0.16000
C2073       C  0.44061189  0.66134234  0.51691835     0.14100
C2074       C  0.41184076  0.64804577  0.51490084     0.01100
C2075       C  0.39955480  0.66381398  0.51228341     0.16000
C2076       C  0.41569140  0.69266599  0.51399236     0.25500
C2077       C  0.44431856  0.70600138  0.51837912    -0.40900
C2078       C  0.45681132  0.69007964  0.51850516     0.32500
C2079       C  0.39467028  0.61860416  0.52110606     0.01100
F2080       F  0.37165959  0.65116143  0.51031697    -0.13200
F2081       F  0.48432360  0.70189279  0.52256527    -0.13700
C2082       C  0.39346666  0.61111388  0.54500290     0.16000
C2083       C  0.37606559  0.58379833  0.55199161     0.25500
C2084       C  0.35950403  0.56342479  0.53517855    -0.40800
C2085       C  0.36148509  0.57068192  0.51101663     0.32400
C2086       C  0.37890583  0.59828322  0.50403965     0.14100
F2087       F  0.40841245  0.63059384  0.56176579    -0.13200
F2088       F  0.34537779  0.55148273  0.49447067    -0.13700
F2089       F  0.37491742  0.57735480  0.57536840    -0.16000
F2090       F  0.37992612  0.60530243  0.48085672    -0.14500
F2091       F  0.45270513  0.64627950  0.51959547    -0.14500
F2092       F  0.40303529  0.70733475  0.51293142    -0.16000
C2093       C  0.26104114  0.35828012  0.58213722     0.14100
C2094       C  0.23823446  0.33626356  0.57053633     0.01100
C2095       C  0.22572835  0.34192426  0.55173946     0.16000
C2096       C  0.23523999  0.36928714  0.54522989     0.25500
C2097       C  0.25754152  0.39155797  0.55742798    -0.40900
C2098       C  0.27059735  0.38559913  0.57573899     0.32500
C2099       C  0.22579517  0.30773559  0.57971013     0.01100
F2100       F  0.20347460  0.32095914  0.54037505    -0.13200
F2101       F  0.29208989  0.40616173  0.58814355    -0.13700
C2102       C  0.21510958  0.30172419  0.60291720     0.16000
C2103       C  0.20150025  0.27465859  0.61142703     0.25500
C2104       C  0.19823146  0.25289725  0.59687980    -0.40800
C2105       C  0.20989643  0.25909672  0.57388227     0.32400
C2106       C  0.22346457  0.28631608  0.56534574     0.14100
F2107       F  0.21682654  0.32199484  0.61706445    -0.13200
F2108       F  0.20697543  0.23869058  0.55921210    -0.13700
F2109       F  0.19102689  0.26972350  0.63383434    -0.16000
F2110       F  0.23397078  0.29171915  0.54294896    -0.14500
F2111       F  0.27372589  0.35328249  0.60011949    -0.14500
F2112       F  0.22225306  0.37386326  0.52724629    -0.16000
C2113       C  0.88383793  0.64981999  0.93782555     0.14100
C2114       C  0.89934504  0.65609159  0.91683084     0.01100
C2115       C  0.90132138  0.63531700  0.90520004     0.16000
C2116       C  0.88717174  0.60827764  0.91404718     0.25500
C2117       C  0.87051265  0.60154802  0.93460120    -0.40900
C2118       C  0.86952846  0.62286256  0.94664450     0.32500
C2119       C  0.91176898  0.68395616  0.90644423     0.01100
F2120       F  0.91659530  0.64116514  0.88503636    -0.13200
F2121       F  0.85426588  0.61765348  0.96674153    -0.13700
C2122       C  0.93313630  0.70699672  0.91833234     0.16000
C2123       C  0.94238722  0.73369982  0.91020852     0.25500
C2124       C  0.93017450  0.73783310  0.89009210    -0.40800
C2125       C  0.90943068  0.71450429  0.87770233     0.32400
C2126       C  0.90040007  0.68782640  0.88581566     0.14100
F2127       F  0.94454697  0.70359227  0.93819624    -0.13200
F2128       F  0.89751553  0.71741919  0.85795994    -0.13700
F2129       F  0.96249451  0.75546189  0.92272634    -0.16000
F2130       F  0.87960777  0.66572633  0.87414417    -0.14500
F2131       F  0.88160758  0.66966806  0.94926051    -0.14500
F2132       F  0.88899011  0.58857527  0.90192713    -0.16000
C2133       C  0.83014675  0.47785517  0.83462696     0.14100
C2134       C  0.85636604  0.48112967  0.83249069     0.01100
C2135       C  0.87481098  0.49224234  0.85173112     0.16000
C2136       C  0.86682016  0.49918232  0.87300141     0.25500
C2137       C  0.84014414  0.49509633  0.87540966    -0.40900
C2138       C  0.82218341  0.48488117  0.85566955     0.32500
C2139       C  0.86297396  0.47070838  0.81076194     0.01100
F2140       F  0.90044646  0.49606775  0.85000995    -0.13200
F2141       F  0.79622918  0.48033518  0.85692145    -0.13700
C2142       C  0.85991632  0.47934718  0.78817734     0.16000
C2143       C  0.85844352  0.46439457  0.76783980     0.25500
C2144       C  0.86046952  0.44091280  0.76972201    -0.40800
C2145       C  0.86635569  0.43391173  0.79188364     0.32400
C2146       C  0.86762288  0.44872746  0.81232345     0.14100
F2147       F  0.85618618  0.50097860  0.78605338    -0.13200
F2148       F  0.86821750  0.41113862  0.79403861    -0.13700
F2149       F  0.85268722  0.47141849  0.74656546    -0.16000
F2150       F  0.87058271  0.43983586  0.83383635    -0.14500
F2151       F  0.81149300  0.46635381  0.81666731    -0.14500
F2152       F  0.88507699  0.50945589  0.89130432    -0.16000
C2153       C  0.00371918  0.43366851  0.77655173     0.14100
C2154       C  0.99698344  0.42095956  0.75406763     0.01100
C2155       C  0.01786796  0.42148848  0.74019140     0.16000
C2156       C  0.04529989  0.43564212  0.74813134     0.25500
C2157       C  0.05239077  0.44971882  0.77010767    -0.40900
C2158       C  0.03112963  0.44789233  0.78451687     0.32500
C2159       C  0.96862289  0.40886362  0.74444865     0.01100
F2160       F  0.01175779  0.40884961  0.71861554    -0.13200
F2161       F  0.03691687  0.46043207  0.80613092    -0.13700
C2162       C  0.96429150  0.41984429  0.72375426     0.16000
C2163       C  0.93751752  0.40964788  0.71520993     0.25500
C2164       C  0.91437740  0.38819527  0.72724804    -0.40800
C2165       C  0.91889325  0.37687888  0.74779344     0.32400
C2166       C  0.94573674  0.38718744  0.75629788     0.14100
F2167       F  0.98602424  0.44120352  0.71223440    -0.13200
F2168       F  0.89733858  0.35637018  0.76016726    -0.13700
F2169       F  0.93435783  0.42109991  0.69526721    -0.16000
F2170       F  0.94939148  0.37608762  0.77624043    -0.14500
F2171       F  0.98395507  0.43352578  0.79031506    -0.14500
F2172       F  0.06507772  0.43683847  0.73365378    -0.16000
C2173       C  0.73833918  0.32998436  0.97102797     0.14100
C2174       C  0.76702944  0.34530487  0.97479026     0.01100
C2175       C  0.78134575  0.33149813  0.97680374     0.16000
C2176       C  0.76759992  0.30289209  0.97346023     0.25500
C2177       C  0.73915083  0.28755535  0.96771615    -0.40900
C2178       C  0.72445416  0.30133321  0.96757939     0.32500
C2179       C  0.78259876  0.37562643  0.97203918     0.01100
F2180       F  0.80909938  0.34607223  0.98049949    -0.13200
F2181       F  0.69692611  0.28744725  0.96280357    -0.13700
C2182       C  0.78143239  0.39297383  0.98926464     0.16000
C2183       C  0.79349694  0.42128156  0.98464981     0.25500
C2184       C  0.80626280  0.43217395  0.96260564    -0.40800
C2185       C  0.80863055  0.41503082  0.94600469     0.32400
C2186       C  0.79699014  0.38700787  0.95071718     0.14100
F2187       F  0.76755256  0.38227217  0.00995548    -0.13200
F2188       F  0.82072767  0.42517113  0.92454358    -0.13700
F2189       F  0.79059955  0.43748508  0.00073066    -0.16000
F2190       F  0.79798548  0.37051871  0.93370643    -0.14500
F2191       F  0.72417040  0.34307105  0.96881746    -0.14500
F2192       F  0.78268416  0.29067632  0.97427705    -0.16000
C2193       C  0.80424259  0.28247060  0.87280561     0.14100
C2194       C  0.79478135  0.26993881  0.85040351     0.01100
C2195       C  0.77420169  0.24165090  0.84919685     0.16000
C2196       C  0.76116423  0.22706395  0.86994875     0.25500
C2197       C  0.76843638  0.24061440  0.89201205    -0.40900
C2198       C  0.79087197  0.26797644  0.89348756     0.32500
C2199       C  0.80230650  0.28727004  0.82877244     0.01100
F2200       F  0.76450255  0.22899710  0.82785752    -0.13200
F2201       F  0.79793904  0.28146251  0.91469365    -0.13700
C2202       C  0.81247391  0.28122646  0.80835467     0.16000
C2203       C  0.81641097  0.29589806  0.78726249     0.25500
C2204       C  0.81035760  0.31702115  0.78627525    -0.40800
C2205       C  0.80086779  0.32344585  0.80699898     0.32400
C2206       C  0.79672906  0.30862464  0.82790909     0.14100
F2207       F  0.81828327  0.26089439  0.80877526    -0.13200
F2208       F  0.79423400  0.34319217  0.80684112    -0.13700
F2209       F  0.82596182  0.28924149  0.76780282    -0.16000
F2210       F  0.78579333  0.31420433  0.84704770    -0.14500
F2211       F  0.82473130  0.30949661  0.87447177    -0.14500
F2212       F  0.73919514  0.20072713  0.86823772    -0.16000
C2213       C  0.71334972  0.09342874  0.90799346     0.14100
C2214       C  0.73860685  0.09811416  0.91677035     0.01100
C2215       C  0.75279564  0.11878820  0.93400650     0.16000
C2216       C  0.74212173  0.13461409  0.94228128     0.25500
C2217       C  0.71687697  0.13027017  0.93341318    -0.40900
C2218       C  0.70253008  0.10923961  0.91624119     0.32500
C2219       C  0.75060377  0.08185273  0.90797546     0.01100
F2220       F  0.77756022  0.12421528  0.94241026    -0.13200
F2221       F  0.67811101  0.10402765  0.90717663    -0.13700
C2222       C  0.75876893  0.08357695  0.88409620     0.16000
C2223       C  0.77307018  0.07086749  0.87657441     0.25500
C2224       C  0.77917656  0.05589870  0.89274298    -0.40800
C2225       C  0.76976936  0.05308968  0.91634592     0.32400
C2226       C  0.75578437  0.06606456  0.92389117     0.14100
F2227       F  0.75400824  0.09862489  0.86829561    -0.13200
F2228       F  0.77551677  0.03911899  0.93251580    -0.13700
F2229       F  0.78121621  0.07345669  0.85351755    -0.16000
F2230       F  0.74782062  0.06375849  0.94697338    -0.14500
F2231       F  0.69903442  0.07337099  0.89151578    -0.14500
F2232       F  0.75693774  0.15452810  0.95874367    -0.16000
C2233       C  0.64223452  0.24700913  0.68317974     0.14100
C2234       C  0.65787789  0.23442581  0.68226186     0.01100
C2235       C  0.64431117  0.20544387  0.68214626     0.16000
C2236       C  0.61553135  0.18930652  0.68507709     0.25500
C2237       C  0.60032915  0.20214732  0.68853147    -0.40900
C2238       C  0.61368787  0.23098904  0.68665246     0.32500
C2239       C  0.68746440  0.25136139  0.68831945     0.01100
F2240       F  0.65919210  0.19298959  0.68167403    -0.13200
F2241       F  0.59946643  0.24379222  0.69042207    -0.13700
C2242       C  0.69450706  0.25743873  0.71236039     0.16000
C2243       C  0.72160185  0.27664933  0.71897183     0.25500
C2244       C  0.74234496  0.29022000  0.70161270    -0.40800
C2245       C  0.73561572  0.28293507  0.67749629     0.32400
C2246       C  0.70817161  0.26369930  0.67087703     0.14100
F2247       F  0.67470132  0.24554879  0.72944931    -0.13200
F2248       F  0.75516913  0.29551186  0.66031198    -0.13700
F2249       F  0.72741185  0.28233258  0.74244839    -0.16000
F2250       F  0.70161451  0.25795631  0.64753162    -0.14500
F2251       F  0.65504943  0.27500736  0.68348756    -0.14500
F2252       F  0.60303571  0.16147160  0.68735674    -0.16000
C2253       C  0.60371830  0.12639394  0.85103116     0.14100
C2254       C  0.61254694  0.14330743  0.83076749     0.01100
C2255       C  0.63911849  0.16733165  0.83066384     0.16000
C2256       C  0.65553220  0.17556082  0.85111857     0.25500
C2257       C  0.64553867  0.16012181  0.87228253    -0.40900
C2258       C  0.61997610  0.13467735  0.87160248     0.32500
C2259       C  0.59287597  0.13840083  0.81125907     0.01100
F2260       F  0.64838198  0.18408640  0.81133600    -0.13200
F2261       F  0.61001146  0.11829619  0.89112357    -0.13700
C2262       C  0.56833722  0.13783883  0.81647570     0.16000
C2263       C  0.55226844  0.13881760  0.79821574     0.25500
C2264       C  0.56041729  0.14047489  0.77433483    -0.40800
C2265       C  0.58375023  0.13880567  0.76899590     0.32400
C2266       C  0.59987305  0.13782432  0.78733754     0.14100
F2267       F  0.56095839  0.13844808  0.83935221    -0.13200
F2268       F  0.59219556  0.14027342  0.74615005    -0.13700
F2269       F  0.52929342  0.13932866  0.80397536    -0.16000
F2270       F  0.62301709  0.13756859  0.78176232    -0.14500
F2271       F  0.57869702  0.10239811  0.85125186    -0.14500
F2272       F  0.68050256  0.19959676  0.85046908    -0.16000
C2273       C  0.44058669  0.02014779  0.72918864     0.14100
C2274       C  0.41889116  0.01115308  0.74565419     0.01100
C2275       C  0.40990820  0.02924550  0.75195985     0.16000
C2276       C  0.42400063  0.05661689  0.74341847     0.25500
C2277       C  0.44737783  0.06621456  0.72870269    -0.40900
C2278       C  0.45469396  0.04728728  0.72090407     0.32500
C2279       C  0.40753566  0.98368085  0.75718251     0.01100
F2280       F  0.38863998  0.02098629  0.76746848    -0.13200
F2281       F  0.47622197  0.05533246  0.70568502    -0.13700
C2282       C  0.42572869  0.97752442  0.76851191     0.16000
C2283       C  0.41641713  0.95081582  0.77662784     0.25500
C2284       C  0.38851548  0.92961822  0.77402032    -0.40800
C2285       C  0.36985421  0.93616826  0.76414841     0.32400
C2286       C  0.37934221  0.96294375  0.75562370     0.14100
F2287       F  0.45283882  0.99739943  0.77129752    -0.13200
F2288       F  0.34274163  0.91630535  0.76149020    -0.13700
F2289       F  0.43485112  0.94566388  0.78693552    -0.16000
F2290       F  0.36127644  0.96817450  0.74472644    -0.14500
F2291       F  0.44879993  0.00278883  0.72169955    -0.14500
F2292       F  0.41597863  0.07413593  0.75079889    -0.16000
C2293       C  0.58572467  0.34540020  0.70624825     0.14100
C2294       C  0.55814791  0.33030732  0.69831530     0.01100
C2295       C  0.54474644  0.34453233  0.69303990     0.16000
C2296       C  0.55815069  0.37312940  0.69680140     0.25500
C2297       C  0.58533088  0.38813612  0.70605340    -0.40900
C2298       C  0.59924055  0.37396465  0.70990558     0.32500
C2299       C  0.54318114  0.29962911  0.69712008     0.01100
F2300       F  0.51845585  0.33062441  0.68457852    -0.13200
F2301       F  0.62561975  0.38742885  0.71815922    -0.13700
C2302       C  0.51961039  0.28333027  0.71133546     0.16000
C2303       C  0.50889408  0.25490633  0.71397821     0.25500
C2304       C  0.52174760  0.24249448  0.70257378    -0.40800
C2305       C  0.54356452  0.25831246  0.68657607     0.32400
C2306       C  0.55420616  0.28660145  0.68390478     0.14100
F2307       F  0.50841410  0.29531508  0.72424820    -0.13200
F2308       F  0.55548080  0.24656940  0.67436315    -0.13700
F2309       F  0.48770686  0.24018555  0.72940582    -0.16000
F2310       F  0.57622448  0.30158638  0.66930080    -0.14500
F2311       F  0.59919807  0.33222646  0.71171376    -0.14500
F2312       F  0.54409888  0.38586672  0.69196201    -0.16000
C2313       C  0.68696238  0.53127264  0.83573163     0.14100
C2314       C  0.71509034  0.53960277  0.83537616     0.01100
C2315       C  0.72822647  0.54277099  0.81338126     0.16000
C2316       C  0.71284474  0.53512546  0.79233968     0.25500
C2317       C  0.68402147  0.52363046  0.79308490    -0.40900
C2318       C  0.67141365  0.52279002  0.81481110     0.32500
C2319       C  0.72837220  0.53822390  0.85752681     0.01100
F2320       F  0.75527712  0.55057289  0.81242116    -0.13200
F2321       F  0.64384508  0.51271745  0.81591553    -0.13700
C2322       C  0.71555911  0.51309279  0.86991837     0.16000
C2323       C  0.72840143  0.50953841  0.88930230     0.25500
C2324       C  0.75495206  0.53075198  0.89652796    -0.40800
C2325       C  0.76759776  0.55640487  0.88473238     0.32400
C2326       C  0.75435997  0.56009903  0.86525974     0.14100
F2327       F  0.69111610  0.49114611  0.86234240    -0.13200
F2328       F  0.79321410  0.57727301  0.89118478    -0.13700
F2329       F  0.71497862  0.48472008  0.90057158    -0.16000
F2330       F  0.76714500  0.58466155  0.85362641    -0.14500
F2331       F  0.67406706  0.52911901  0.85669823    -0.14500
F2332       F  0.72569243  0.53646134  0.77153663    -0.16000
C2333       C  0.74087622  0.46948690  0.72110598     0.14100
C2334       C  0.74045614  0.45945175  0.69816653     0.01100
C2335       C  0.72357174  0.46088214  0.68068452     0.16000
C2336       C  0.70656847  0.47127741  0.68640083     0.25500
C2337       C  0.70592341  0.47983646  0.70978808    -0.40900
C2338       C  0.72376568  0.47946986  0.72686904     0.32500
C2339       C  0.75609110  0.44559708  0.69363096     0.01100
F2340       F  0.72293692  0.45142105  0.65835851    -0.13200
F2341       F  0.72382510  0.48780264  0.74954228    -0.13700
C2342       C  0.74190436  0.41678411  0.69044680     0.16000
C2343       C  0.75608462  0.40272980  0.69175673     0.25500
C2344       C  0.78479593  0.41729544  0.69614041    -0.40800
C2345       C  0.79924196  0.44644997  0.69727042     0.32400
C2346       C  0.78496131  0.46037202  0.69625796     0.14100
F2347       F  0.71398469  0.40201130  0.68785610    -0.13200
F2348       F  0.82694789  0.46149786  0.70111710    -0.13700
F2349       F  0.74149172  0.37474430  0.68973053    -0.16000
F2350       F  0.79914318  0.48824928  0.69920757    -0.14500
F2351       F  0.75666979  0.46801655  0.73841810    -0.14500
F2352       F  0.68936370  0.47111024  0.66960563    -0.16000
C2353       C  0.59529969  0.57184138  0.76345550     0.14100
C2354       C  0.57707481  0.57382533  0.74793830     0.01100
C2355       C  0.57235978  0.56181091  0.72527216     0.16000
C2356       C  0.58493366  0.54724431  0.71842875     0.25500
C2357       C  0.60277056  0.54461066  0.73407675    -0.40900
C2358       C  0.60824231  0.55755131  0.75653526     0.32500
C2359       C  0.56148172  0.58679928  0.75573122     0.01100
F2360       F  0.55469553  0.56333320  0.71005535    -0.13200
F2361       F  0.62498652  0.55520462  0.77225694    -0.13700
C2362       C  0.56764141  0.61228820  0.74636835     0.16000
C2363       C  0.55146876  0.62345368  0.75241064     0.25500
C2364       C  0.52855981  0.60915633  0.76787129    -0.40800
C2365       C  0.52270305  0.58359417  0.77734235     0.32400
C2366       C  0.53905237  0.57267138  0.77136873     0.14100
F2367       F  0.58921528  0.62623853  0.73113249    -0.13200
F2368       F  0.50077634  0.56868506  0.79204410    -0.13700
F2369       F  0.55799192  0.64798642  0.74266273    -0.16000
F2370       F  0.53238108  0.54770541  0.78023984    -0.14500
F2371       F  0.60011810  0.58330947  0.78547954    -0.14500
F2372       F  0.57940389  0.53547041  0.69649910    -0.16000
C2373       C  0.46253396  0.19333199  0.87609962     0.14100
C2374       C  0.45205712  0.19775754  0.85515061     0.01100
C2375       C  0.43955795  0.21354677  0.85614758     0.16000
C2376       C  0.43966834  0.22664018  0.87743501     0.25500
C2377       C  0.45250320  0.22422971  0.89782394    -0.40900
C2378       C  0.46278989  0.20649387  0.89724908     0.32500
C2379       C  0.45990475  0.19133875  0.83195936     0.01100
F2380       F  0.42972320  0.21845319  0.83600866    -0.13200
F2381       F  0.47562402  0.20416711  0.91662741    -0.13700
C2382       C  0.44237588  0.16673498  0.81950706     0.16000
C2383       C  0.45118082  0.16091658  0.79804106     0.25500
C2384       C  0.47775941  0.17970072  0.78874663    -0.40800
C2385       C  0.49508872  0.20439286  0.80153390     0.32400
C2386       C  0.48621365  0.21003058  0.82276795     0.14100
F2387       F  0.41689886  0.14828611  0.82825373    -0.13200
F2388       F  0.52087468  0.22334764  0.79365680    -0.13700
F2389       F  0.43373375  0.13691446  0.78649497    -0.16000
F2390       F  0.50354741  0.23389650  0.83458962    -0.14500
F2391       F  0.47503553  0.17849442  0.87547794    -0.14500
F2392       F  0.43011730  0.24410682  0.87740848    -0.16000
C2393       C  0.49821790  0.38578142  0.85650929     0.14100
C2394       C  0.50982479  0.38016335  0.83686784     0.01100
C2395       C  0.51281334  0.35716535  0.83750009     0.16000
C2396       C  0.50581529  0.34093468  0.85793049     0.25500
C2397       C  0.49583005  0.34751770  0.87830970    -0.40900
C2398       C  0.49119428  0.36956987  0.87706410     0.32500
C2399       C  0.52268348  0.40024157  0.81719416     0.01100
F2400       F  0.52457854  0.35167412  0.81894517    -0.13200
F2401       F  0.48067108  0.37601511  0.89595664    -0.13700
C2402       C  0.54651699  0.42617182  0.82178571     0.16000
C2403       C  0.56278717  0.44289744  0.80302452     0.25500
C2404       C  0.55531947  0.43413616  0.77943616    -0.40800
C2405       C  0.53052733  0.40909179  0.77473315     0.32400
C2406       C  0.51426848  0.39219575  0.79354039     0.14100
F2407       F  0.55553060  0.43404477  0.84442770    -0.13200
F2408       F  0.52350129  0.39981927  0.75203759    -0.13700
F2409       F  0.58716906  0.46653484  0.80787276    -0.16000
F2410       F  0.49138778  0.36716905  0.78871386    -0.14500
F2411       F  0.49469916  0.40763964  0.85606590    -0.14500
F2412       F  0.51078844  0.32001725  0.85821841    -0.16000
C2413       C  0.53766167  0.21714162  0.97272095     0.14100
C2414       C  0.56650938  0.23335378  0.97027525     0.01100
C2415       C  0.57936655  0.26207846  0.96774956     0.16000
C2416       C  0.56351018  0.27432098  0.96638400     0.25500
C2417       C  0.53432896  0.25797374  0.96747311    -0.40900
C2418       C  0.52167071  0.22927942  0.97146037     0.32500
C2419       C  0.58277380  0.22009765  0.96669516     0.01100
F2420       F  0.60723054  0.27807879  0.96497507    -0.13200
F2421       F  0.49372091  0.21257701  0.97263550    -0.13700
C2422       C  0.58129036  0.20768234  0.94468555     0.16000
C2423       C  0.59882990  0.19797900  0.93967152     0.25500
C2424       C  0.61787846  0.20009327  0.95671931    -0.40800
C2425       C  0.61861405  0.21144805  0.97917743     0.32400
C2426       C  0.60130485  0.22166229  0.98405638     0.14100
F2427       F  0.56385502  0.20636941  0.92754175    -0.13200
F2428       F  0.63740937  0.21445679  0.99567893    -0.13700
F2429       F  0.59790849  0.18733304  0.91779328    -0.16000
F2430       F  0.60326470  0.23391958  0.00533204    -0.14500
F2431       F  0.52489039  0.18930181  0.97517315    -0.14500
F2432       F  0.57678791  0.30204737  0.96281363    -0.16000
C2433       C  0.61725529  0.40805486  0.94789931     0.14100
C2434       C  0.62653109  0.40942469  0.97122277     0.01100
C2435       C  0.60711946  0.39497327  0.98932787     0.16000
C2436       C  0.57875906  0.37853281  0.98390998     0.25500
C2437       C  0.56961569  0.37617361  0.96025712    -0.40900
C2438       C  0.58916734  0.39155774  0.94243119     0.32500
C2439       C  0.65671339  0.42500104  0.97571872     0.01100
F2440       F  0.61572216  0.39601236  0.01200067    -0.13200
F2441       F  0.58112931  0.39013383  0.91949037    -0.13700
C2442       C  0.67084665  0.45349267  0.98027674     0.16000
C2443       C  0.69974863  0.46962948  0.97838391     0.25500
C2444       C  0.71505804  0.45751577  0.97155290    -0.40800
C2445       C  0.70083233  0.42844683  0.96919408     0.32400
C2446       C  0.67194591  0.41243802  0.97114011     0.14100
F2447       F  0.65647777  0.46597637  0.98497221    -0.13200
F2448       F  0.71456405  0.41554482  0.96351884    -0.13700
F2449       F  0.71242437  0.49734873  0.98178824    -0.16000
F2450       F  0.65863323  0.38481373  0.96691287    -0.14500
F2451       F  0.63566967  0.42210601  0.93020369    -0.14500
F2452       F  0.56053239  0.36358153  0.00145084    -0.16000
C2453       C  0.35770984  0.28081074  0.92867787     0.14100
C2454       C  0.33935990  0.25197800  0.92744814     0.01100
C2455       C  0.34837855  0.23464200  0.93557529     0.16000
C2456       C  0.37547175  0.24569341  0.94368823     0.25500
C2457       C  0.39443099  0.27450185  0.94382674    -0.40900
C2458       C  0.38504947  0.29198476  0.93665644     0.32500
C2459       C  0.31141282  0.23949369  0.91641698     0.01100
F2460       F  0.33094294  0.20675251  0.93523617    -0.13200
F2461       F  0.40234636  0.31988003  0.93725074    -0.13700
C2462       C  0.30475578  0.22213518  0.89649418     0.16000
C2463       C  0.27785790  0.20776418  0.88729104     0.25500
C2464       C  0.25670582  0.21039834  0.89773864    -0.40800
C2465       C  0.26379467  0.22893669  0.91707090     0.32400
C2466       C  0.29085399  0.24329392  0.92628409     0.14100
F2467       F  0.32440230  0.21875797  0.88608022    -0.13200
F2468       F  0.24435087  0.23239846  0.92777587    -0.13700
F2469       F  0.27255394  0.19083860  0.86833344    -0.16000
F2470       F  0.29662171  0.25992052  0.94554616    -0.14500
F2471       F  0.34949798  0.29812885  0.92131881    -0.14500
F2472       F  0.38346173  0.22796143  0.95032393    -0.16000
C2473       C  0.85374856  0.53530605  0.11178084     0.14100
C2474       C  0.85056581  0.51551075  0.09505079     0.01100
C2475       C  0.85094745  0.49215945  0.10261960     0.16000
C2476       C  0.85339309  0.48814062  0.12685494     0.25500
C2477       C  0.85497026  0.50723272  0.14377321    -0.40900
C2478       C  0.85579798  0.53116477  0.13593646     0.32500
C2479       C  0.84475304  0.51841593  0.07003214     0.01100
F2480       F  0.84808765  0.47289370  0.08659636    -0.13200
F2481       F  0.85789898  0.55026772  0.15178621    -0.13700
C2482       C  0.86567217  0.53839177  0.05535064     0.16000
C2483       C  0.85976421  0.54169368  0.03189290     0.25500
C2484       C  0.83267039  0.52531680  0.02289149    -0.40800
C2485       C  0.81163234  0.50576601  0.03791636     0.32400
C2486       C  0.81770517  0.50223396  0.06122677     0.14100
F2487       F  0.89184138  0.55456585  0.06374181    -0.13200
F2488       F  0.78533989  0.48943294  0.02983869    -0.13700
F2489       F  0.88047403  0.56114814  0.01809072    -0.16000
F2490       F  0.79711044  0.48315867  0.07535204    -0.14500
F2491       F  0.85348829  0.55801531  0.10478195    -0.14500
F2492       F  0.85237514  0.46477527  0.13386318    -0.16000
C2493       C  0.96106086  0.58301461  0.24998447     0.14100
C2494       C  0.98038212  0.57559130  0.24410998     0.01100
C2495       C  0.97220930  0.55215537  0.23001042     0.16000
C2496       C  0.94476266  0.53552133  0.22279170     0.25500
C2497       C  0.92493944  0.54203698  0.22956236    -0.40900
C2498       C  0.93343153  0.56636994  0.24264453     0.32500
C2499       C  0.00848975  0.59054501  0.25424159     0.01100
F2500       F  0.99074374  0.54494851  0.22383640    -0.13200
F2501       F  0.91474620  0.57309255  0.24951044    -0.13700
C2502       C  0.01460270  0.57890997  0.27335976     0.16000
C2503       C  0.04175159  0.59085439  0.28146064     0.25500
C2504       C  0.06350067  0.61470233  0.27039781    -0.40800
C2505       C  0.05700881  0.62685512  0.25165245     0.32400
C2506       C  0.02970033  0.61479151  0.24366238     0.14100
F2507       F  0.99426285  0.55532182  0.28369192    -0.13200
F2508       F  0.07714175  0.64968338  0.24027930    -0.13700
F2509       F  0.04670247  0.57844458  0.29969347    -0.16000
F2510       F  0.02413239  0.62603643  0.22488497    -0.14500
F2511       F  0.96871149  0.60561859  0.26370271    -0.14500
F2512       F  0.93744498  0.51274511  0.20938677    -0.16000
C2513       C  0.46409628  0.12941717  0.55249350     0.14100
C2514       C  0.46733787  0.14873230  0.56984095     0.01100
C2515       C  0.46800206  0.17281004  0.56279784     0.16000
C2516       C  0.46588302  0.17771047  0.53875002     0.25500
C2517       C  0.46326620  0.15869104  0.52130509    -0.40900
C2518       C  0.46216470  0.13437017  0.52844006     0.32500
C2519       C  0.47081238  0.14426823  0.59522271     0.01100
F2520       F  0.47179545  0.19211546  0.57917409    -0.13200
F2521       F  0.45903386  0.11526401  0.51210823    -0.13700
C2522       C  0.49363331  0.14277611  0.60259666     0.16000
C2523       C  0.49806208  0.14069233  0.62678728     0.25500
C2524       C  0.47981691  0.14026587  0.64403220    -0.40800
C2525       C  0.45647623  0.14083032  0.63649416     0.32400
C2526       C  0.45199450  0.14271630  0.61232576     0.14100
F2527       F  0.51235726  0.14466476  0.58643118    -0.13200
F2528       F  0.43799051  0.13965487  0.65255844    -0.13700
F2529       F  0.52105393  0.14072122  0.63338793    -0.16000
F2530       F  0.42932683  0.14322153  0.60558136    -0.14500
F2531       F  0.46271500  0.10569583  0.55888628    -0.14500
F2532       F  0.46782471  0.20171539  0.53243824    -0.16000
C2533       C  0.33742160  0.11041499  0.43434059     0.14100
C2534       C  0.33052423  0.08748928  0.41994744     0.01100
C2535       C  0.35060690  0.08082247  0.41502616     0.16000
C2536       C  0.37764010  0.09750046  0.42377239     0.25500
C2537       C  0.38498448  0.12129661  0.43732337    -0.40900
C2538       C  0.36436264  0.12721869  0.44289209     0.32500
C2539       C  0.30269484  0.07164520  0.40916553     0.01100
F2540       F  0.34416012  0.05855875  0.40125696    -0.13200
F2541       F  0.37036970  0.14962502  0.45631643    -0.13700
C2542       C  0.29848219  0.07761290  0.38592847     0.16000
C2543       C  0.27167442  0.06535476  0.37667494     0.25500
C2544       C  0.24864664  0.04670923  0.39049644    -0.40800
C2545       C  0.25313870  0.03988038  0.41345521     0.32400
C2546       C  0.27991937  0.05246807  0.42274896     0.14100
F2547       F  0.32031371  0.09622034  0.37257715    -0.13200
F2548       F  0.23151160  0.02224517  0.42750622    -0.13700
F2549       F  0.26823719  0.07201221  0.35433717    -0.16000
F2550       F  0.28357535  0.04667819  0.44534493    -0.14500
F2551       F  0.31821486  0.11708226  0.43941217    -0.14500
F2552       F  0.39693070  0.09124834  0.41786014    -0.16000
C2553       C  0.47261723  0.33899799  0.05951528     0.14100
C2554       C  0.48836772  0.33322141  0.07485399     0.01100
C2555       C  0.49883749  0.31714536  0.06638935     0.16000
C2556       C  0.49372516  0.30713601  0.04287231     0.25500
C2557       C  0.47821379  0.31326473  0.02730791    -0.40900
C2558       C  0.46761424  0.32922675  0.03608711     0.32500
C2559       C  0.49222657  0.34265706  0.10003558     0.01100
F2560       F  0.51366064  0.31079469  0.08103403    -0.13200
F2561       F  0.45209622  0.33529770  0.02206093    -0.13700
C2562       C  0.46921265  0.33189784  0.11516804     0.16000
C2563       C  0.47213658  0.34061709  0.13882342     0.25500
C2564       C  0.49835260  0.36044166  0.14814098    -0.40800
C2565       C  0.52141502  0.37176297  0.13268785     0.32400
C2566       C  0.51834608  0.36285520  0.10889097     0.14100
F2567       F  0.44373740  0.31245642  0.10706058    -0.13200
F2568       F  0.54699825  0.39119607  0.14057546    -0.13700
F2569       F  0.44905826  0.32932295  0.15258632    -0.16000
F2570       F  0.54081952  0.37418671  0.09439606    -0.14500
F2571       F  0.46215501  0.35436327  0.06725509    -0.14500
F2572       F  0.50445465  0.29197732  0.03525200    -0.16000
C2573       C  0.64687422  0.40584558  0.20528293     0.14100
C2574       C  0.66267166  0.43351140  0.19773722     0.01100
C2575       C  0.64957047  0.44837237  0.19427433     0.16000
C2576       C  0.62147460  0.43634737  0.19948162     0.25500
C2577       C  0.60576346  0.40899806  0.20820226    -0.40900
C2578       C  0.61871215  0.39365641  0.21038559     0.32500
C2579       C  0.69316771  0.44751479  0.19599312     0.01100
F2580       F  0.66421993  0.47488143  0.18639529    -0.13200
F2581       F  0.60451282  0.36717334  0.21835418    -0.13700
C2582       C  0.70540248  0.43636695  0.18182494     0.16000
C2583       C  0.73362842  0.44627931  0.18397426     0.25500
C2584       C  0.75008807  0.46774914  0.20007470    -0.40800
C2585       C  0.73839730  0.48068649  0.21245184     0.32400
C2586       C  0.71007637  0.47043788  0.21064357     0.14100
F2587       F  0.68973912  0.41498382  0.16679832    -0.13200
F2588       F  0.75372718  0.50136198  0.22816224    -0.13700
F2589       F  0.74463331  0.43396897  0.17123986    -0.16000
F2590       F  0.69877974  0.48135727  0.22482902    -0.14500
F2591       F  0.65906235  0.39104033  0.20904335    -0.14500
F2592       F  0.61002566  0.45197578  0.19667360    -0.16000
C2593       C  0.47054646  0.30733935  0.33681341     0.14100
C2594       C  0.44781858  0.28019987  0.33458710     0.01100
C2595       C  0.43328670  0.27182724  0.31300621     0.16000
C2596       C  0.44300463  0.28940397  0.29323578     0.25500
C2597       C  0.46770770  0.31559946  0.29469754    -0.40900
C2598       C  0.48039161  0.32490046  0.31713613     0.32500
C2599       C  0.44347641  0.25962866  0.35291133     0.01100
F2600       F  0.41071486  0.24593750  0.31068205    -0.13200
F2601       F  0.50357805  0.35028390  0.31983174    -0.13700
C2602       C  0.43796021  0.26278814  0.37669343     0.16000
C2603       C  0.44129429  0.24783524  0.39477923     0.25500
C2604       C  0.45050042  0.22969707  0.38928114    -0.40800
C2605       C  0.45341912  0.22477572  0.36516360     0.32400
C2606       C  0.44999892  0.23962180  0.34723971     0.14100
F2607       F  0.43086794  0.28149067  0.38249308    -0.13200
F2608       F  0.46120202  0.20672647  0.35884250    -0.13700
F2609       F  0.43739873  0.25263502  0.41768805    -0.16000
F2610       F  0.45556060  0.23621284  0.32441856    -0.14500
F2611       F  0.48494094  0.31597461  0.35750330    -0.14500
F2612       F  0.42914575  0.27997430  0.27236658    -0.16000
C2613       C  0.44110714  0.43349871  0.22694302     0.14100
C2614       C  0.41989565  0.42088331  0.24392217     0.01100
C2615       C  0.41346667  0.39546101  0.25370606     0.16000
C2616       C  0.42843979  0.38313628  0.24708838     0.25500
C2617       C  0.45045447  0.39616164  0.23062805    -0.40900
C2618       C  0.45623607  0.42138264  0.22036485     0.32500
C2619       C  0.40562727  0.43508299  0.25237102     0.01100
F2620       F  0.39276503  0.38267559  0.26991190    -0.13200
F2621       F  0.47695059  0.43482426  0.20425213    -0.13700
C2622       C  0.38875528  0.43939508  0.23702099     0.16000
C2623       C  0.37652264  0.45406749  0.24480241     0.25500
C2624       C  0.38139662  0.46518668  0.26797977    -0.40800
C2625       C  0.39800582  0.46045928  0.28339511     0.32400
C2626       C  0.40984369  0.44544681  0.27569601     0.14100
F2627       F  0.38437817  0.42963005  0.21438514    -0.13200
F2628       F  0.40289261  0.47045384  0.30597198    -0.13700
F2629       F  0.36093452  0.45844662  0.22929918    -0.16000
F2630       F  0.42627144  0.44182247  0.29080658    -0.14500
F2631       F  0.44792242  0.45821254  0.21737042    -0.14500
F2632       F  0.42175648  0.35879844  0.25733554    -0.16000
C2633       C  0.75920467  0.63442199  0.43147122     0.14100
C2634       C  0.74106098  0.64158590  0.42161196     0.01100
C2635       C  0.71255682  0.62169043  0.42131061     0.16000
C2636       C  0.70249635  0.59496834  0.43010511     0.25500
C2637       C  0.72077489  0.58751799  0.43935753    -0.40900
C2638       C  0.74924796  0.60772950  0.44011229     0.32500
C2639       C  0.75221924  0.66946081  0.41091134     0.01100
F2640       F  0.69447363  0.62785137  0.41183840    -0.13200
F2641       F  0.76772069  0.60152275  0.44856447    -0.13700
C2642       C  0.77275693  0.67892098  0.39326008     0.16000
C2643       C  0.78490699  0.70572334  0.38418911     0.25500
C2644       C  0.77668665  0.72388576  0.39240782    -0.40800
C2645       C  0.75517641  0.71390146  0.40939255     0.32400
C2646       C  0.74316703  0.68702944  0.41856997     0.14100
F2647       F  0.78128104  0.66215314  0.38484689    -0.13200
F2648       F  0.74614746  0.73029648  0.41765514    -0.13700
F2649       F  0.80530791  0.71396493  0.36774912    -0.16000
F2650       F  0.72342516  0.67858856  0.43565843    -0.14500
F2651       F  0.78675943  0.65336839  0.43269680    -0.14500
F2652       F  0.67481526  0.57643106  0.42955280    -0.16000
C2653       C  0.66900015  0.52985366  0.61722185     0.14100
C2654       C  0.66027367  0.50678798  0.60251738     0.01100
C2655       C  0.64108744  0.48028945  0.61106039     0.16000
C2656       C  0.63075844  0.47681524  0.63420782     0.25500
C2657       C  0.63962487  0.49990269  0.64923233    -0.40900
C2658       C  0.65887677  0.52652583  0.64038175     0.32500
C2659       C  0.67026166  0.51057085  0.57784399     0.01100
F2660       F  0.63219665  0.45779897  0.59685791    -0.13200
F2661       F  0.66818243  0.54945512  0.65410683    -0.13700
C2662       C  0.68870225  0.50247520  0.57080678     0.16000
C2663       C  0.69750585  0.50553535  0.54713873     0.25500
C2664       C  0.68780311  0.51665163  0.53012837    -0.40800
C2665       C  0.66955464  0.52510862  0.53756942     0.32400
C2666       C  0.66096888  0.52210555  0.56118865     0.14100
F2667       F  0.69803367  0.49147090  0.58687217    -0.13200
F2668       F  0.65945099  0.53583798  0.52198079    -0.13700
F2669       F  0.71482538  0.49684484  0.54083178    -0.16000
F2670       F  0.64288756  0.52977027  0.56773343    -0.14500
F2671       F  0.68764343  0.55563105  0.60917367    -0.14500
F2672       F  0.61256840  0.45079281  0.64198914    -0.16000
C2673       C  0.78636504  0.50298774  0.37245814     0.14100
C2674       C  0.79108768  0.52387304  0.35640261     0.01100
C2675       C  0.78292031  0.54257209  0.36250067     0.16000
C2676       C  0.76877708  0.53945333  0.38384871     0.25500
C2677       C  0.76209014  0.51716737  0.39901805    -0.40900
C2678       C  0.77183383  0.49954210  0.39354238     0.32500
C2679       C  0.79932333  0.52245988  0.33177170     0.01100
F2680       F  0.78709969  0.56271882  0.34705382    -0.13200
F2681       F  0.76624354  0.47822929  0.40816267    -0.13700
C2682       C  0.77866413  0.51024638  0.31436690     0.16000
C2683       C  0.78473327  0.50460392  0.29180895     0.25500
C2684       C  0.81173909  0.51140942  0.28607392    -0.40800
C2685       C  0.83283173  0.52499658  0.30312053     0.32400
C2686       C  0.82654974  0.53015575  0.32599829     0.14100
F2687       F  0.75215809  0.50231965  0.31970346    -0.13200
F2688       F  0.85901408  0.53158439  0.29814975    -0.13700
F2689       F  0.76393469  0.49174319  0.27572595    -0.16000
F2690       F  0.84672101  0.54172029  0.34273009    -0.14500
F2691       F  0.79390405  0.48457868  0.36680311    -0.14500
F2692       F  0.75956093  0.55670645  0.38866272    -0.16000
C2693       C  0.56020426  0.44219848  0.32597527     0.14100
C2694       C  0.58830775  0.46317512  0.32433575     0.01100
C2695       C  0.59977531  0.47381172  0.30184525     0.16000
C2696       C  0.58428952  0.46165967  0.28122566     0.25500
C2697       C  0.55706497  0.43894219  0.28282819    -0.40900
C2698       C  0.54470484  0.43014471  0.30531833     0.32500
C2699       C  0.60651960  0.47065889  0.34543793     0.01100
F2700       F  0.62669481  0.49446136  0.29983073    -0.13200
F2701       F  0.51859252  0.40784516  0.30726213    -0.13700
C2702       C  0.62802625  0.46527154  0.34536765     0.16000
C2703       C  0.64396638  0.46989268  0.36571022     0.25500
C2704       C  0.63859487  0.47980149  0.38677020    -0.40800
C2705       C  0.61746896  0.48592830  0.38656766     0.32400
C2706       C  0.60155457  0.48127907  0.36612482     0.14100
F2707       F  0.63280819  0.45426043  0.32582767    -0.13200
F2708       F  0.61195769  0.49623676  0.40618526    -0.13700
F2709       F  0.66400933  0.46367493  0.36490331    -0.16000
F2710       F  0.58113154  0.48696690  0.36658027    -0.14500
F2711       F  0.54862272  0.43136756  0.34743623    -0.14500
F2712       F  0.59683658  0.47002028  0.25969933    -0.16000
C2713       C  0.53705982  0.32796413  0.46002189     0.14100
C2714       C  0.54993273  0.33584037  0.48237433     0.01100
C2715       C  0.54520379  0.31515837  0.49884542     0.16000
C2716       C  0.52894658  0.28708160  0.49252560     0.25500
C2717       C  0.51750001  0.27948251  0.46960206    -0.40900
C2718       C  0.52098367  0.30016149  0.45376084     0.32500
C2719       C  0.57137063  0.36535025  0.48641024     0.01100
F2720       F  0.55723137  0.32220325  0.52062959    -0.13200
F2721       F  0.50943213  0.29346749  0.43176373    -0.13700
C2722       C  0.56548222  0.38620162  0.48223462     0.16000
C2723       C  0.58701905  0.41353514  0.47821425     0.25500
C2724       C  0.61455669  0.42024882  0.47864941    -0.40800
C2725       C  0.62041610  0.40017470  0.48557651     0.32400
C2726       C  0.59904519  0.37288604  0.48933376     0.14100
F2727       F  0.53888781  0.37959457  0.48001702    -0.13200
F2728       F  0.64698388  0.40667149  0.48706587    -0.13700
F2729       F  0.58094697  0.43273794  0.47168113    -0.16000
F2730       F  0.60554537  0.35338254  0.49325443    -0.14500
F2731       F  0.54170791  0.34728445  0.44345643    -0.14500
F2732       F  0.52592189  0.26753680  0.50817010    -0.16000
C2733       C  0.82768767  0.35979601  0.59819735     0.14100
C2734       C  0.82366025  0.33378738  0.59273563     0.01100
C2735       C  0.82384124  0.31724689  0.61099107     0.16000
C2736       C  0.82858935  0.32669808  0.63442409     0.25500
C2737       C  0.83331838  0.35309977  0.64014627    -0.40900
C2738       C  0.83228263  0.36934893  0.62176444     0.32500
C2739       C  0.82048750  0.32409473  0.56792941     0.01100
F2740       F  0.81991743  0.29201689  0.60599989    -0.13200
F2741       F  0.83600766  0.39454141  0.62647114    -0.13700
C2742       C  0.84372885  0.33484415  0.55311265     0.16000
C2743       C  0.84136703  0.32450634  0.53009368     0.25500
C2744       C  0.81550596  0.30319717  0.52136028    -0.40800
C2745       C  0.79219359  0.29247939  0.53644196     0.32400
C2746       C  0.79476166  0.30277152  0.55955370     0.14100
F2747       F  0.86888738  0.35509688  0.56115247    -0.13200
F2748       F  0.76676540  0.27239834  0.52878490    -0.13700
F2749       F  0.86451593  0.33549595  0.51643787    -0.16000
F2750       F  0.77207572  0.29206653  0.57376635    -0.14500
F2751       F  0.82714969  0.37587829  0.58067961    -0.14500
F2752       F  0.82823700  0.30968586  0.65150317    -0.16000
C2753       C  0.82539902  0.35235324  0.33502484     0.14100
C2754       C  0.84652259  0.38037645  0.33611232     0.01100
C2755       C  0.86198473  0.39078057  0.35714066     0.16000
C2756       C  0.85533349  0.37388151  0.37719858     0.25500
C2757       C  0.83315240  0.34608942  0.37652586    -0.40900
C2758       C  0.81895385  0.33535591  0.35485940     0.32500
C2759       C  0.85020404  0.39904850  0.31616919     0.01100
F2760       F  0.88296268  0.41763023  0.35850648    -0.13200
F2761       F  0.79772085  0.30868676  0.35303165    -0.13700
C2762       C  0.84731306  0.42184441  0.32024035     0.16000
C2763       C  0.84638536  0.43701185  0.30118268     0.25500
C2764       C  0.84791703  0.42945525  0.27760701    -0.40800
C2765       C  0.85225772  0.40755051  0.27357259     0.32400
C2766       C  0.85350533  0.39256454  0.29270647     0.14100
F2767       F  0.84348904  0.42833830  0.34260392    -0.13200
F2768       F  0.85334072  0.39934571  0.25110579    -0.13700
F2769       F  0.84295077  0.45851910  0.30581315    -0.16000
F2770       F  0.85679938  0.37095057  0.28826620    -0.14500
F2771       F  0.80959901  0.34176675  0.31520738    -0.14500
F2772       F  0.86974685  0.38524788  0.39755033    -0.16000
C2773       C  0.66611464  0.24813478  0.47970818     0.14100
C2774       C  0.64701089  0.22309033  0.46842017     0.01100
C2775       C  0.65672152  0.20787200  0.45680208     0.16000
C2776       C  0.68516406  0.21841572  0.45513634     0.25500
C2777       C  0.70434123  0.24452152  0.46477014    -0.40900
C2778       C  0.69456644  0.25891542  0.47767820     0.32500
C2779       C  0.61799109  0.21562817  0.46502334     0.01100
F2780       F  0.63883643  0.18404192  0.44520991    -0.13200
F2781       F  0.71260610  0.28392564  0.48751243    -0.13700
C2782       C  0.61308854  0.23384796  0.45236727     0.16000
C2783       C  0.58619644  0.22714995  0.44772731     0.25500
C2784       C  0.56327489  0.20188340  0.45558109    -0.40800
C2785       C  0.56809328  0.18335615  0.46808872     0.32400
C2786       C  0.59531776  0.19022525  0.47279981     0.14100
F2787       F  0.63453763  0.25792618  0.44368697    -0.13200
F2788       F  0.54657330  0.15890767  0.47604940    -0.13700
F2789       F  0.58272185  0.24518118  0.43468785    -0.16000
F2790       F  0.59956762  0.17225764  0.48508367    -0.14500
F2791       F  0.65719237  0.26292815  0.49150355    -0.14500
F2792       F  0.69397008  0.20434164  0.44209618    -0.16000
C2793       C  0.76824084  0.37834139  0.49186956     0.14100
C2794       C  0.77260366  0.40022067  0.47708987     0.01100
C2795       C  0.78802817  0.40546044  0.45607336     0.16000
C2796       C  0.79796323  0.38850401  0.44940752     0.25500
C2797       C  0.79317671  0.36631778  0.46385659    -0.40900
C2798       C  0.77875283  0.36166633  0.48540866     0.32500
C2799       C  0.75882936  0.41592009  0.48168528     0.01100
F2800       F  0.79188826  0.42596065  0.44118229    -0.13200
F2801       F  0.77313216  0.33978963  0.49927576    -0.13700
C2802       C  0.77459755  0.44474237  0.48471103     0.16000
C2803       C  0.76219210  0.46047911  0.48304602     0.25500
C2804       C  0.73371002  0.44765969  0.47791376    -0.40800
C2805       C  0.71765525  0.41843784  0.47692861     0.32400
C2806       C  0.73009497  0.40280991  0.47892589     0.14100
F2807       F  0.80236172  0.45779611  0.48795443    -0.13200
F2808       F  0.69016656  0.40482287  0.47227384    -0.13700
F2809       F  0.77851196  0.48839778  0.48496164    -0.16000
F2810       F  0.71432274  0.37494172  0.47608257    -0.14500
F2811       F  0.75297800  0.37253892  0.51203339    -0.14500
F2812       F  0.81137841  0.39307596  0.42831924    -0.16000
C2813       C  0.89535265  0.21086194  0.39263723     0.14100
C2814       C  0.90696620  0.22864555  0.41230033     0.01100
C2815       C  0.92964211  0.23020605  0.42399121     0.16000
C2816       C  0.94015558  0.21386284  0.41636538     0.25500
C2817       C  0.92769947  0.19522890  0.39731597    -0.40900
C2818       C  0.90543767  0.19414092  0.38537085     0.32500
C2819       C  0.89393912  0.24384820  0.42141874     0.01100
F2820       F  0.94122502  0.24715858  0.44306050    -0.13200
F2821       F  0.89324451  0.17658110  0.36674787    -0.13700
C2822       C  0.87901221  0.23574982  0.44284000     0.16000
C2823       C  0.86384244  0.24757245  0.45019662     0.25500
C2824       C  0.86334164  0.26800962  0.43633145    -0.40800
C2825       C  0.87936501  0.27693417  0.41533539     0.32400
C2826       C  0.89430803  0.26480980  0.40790573     0.14100
F2827       F  0.87808543  0.21538603  0.45615074    -0.13200
F2828       F  0.87962383  0.29649814  0.40136783    -0.13700
F2829       F  0.84922901  0.23854785  0.47077779    -0.16000
F2830       F  0.90872890  0.27313056  0.38719838    -0.14500
F2831       F  0.87339217  0.20881351  0.38109192    -0.14500
F2832       F  0.96150421  0.21513547  0.42836557    -0.16000
C2833       C  0.66290942  0.14938139  0.10923161     0.14100
C2834       C  0.65081696  0.15792378  0.09241406     0.01100
C2835       C  0.62956591  0.16212932  0.09944179     0.16000
C2836       C  0.62086377  0.15839848  0.12319326     0.25500
C2837       C  0.63346835  0.15053773  0.14040112    -0.40900
C2838       C  0.65443917  0.14576259  0.13297194     0.32500
C2839       C  0.66092071  0.16302744  0.06763245     0.01100
F2840       F  0.61733101  0.16998107  0.08325663    -0.13200
F2841       F  0.66733037  0.13814698  0.14868346    -0.13700
C2842       C  0.65548117  0.14085777  0.05277432     0.16000
C2843       C  0.66509642  0.14566627  0.02931786     0.25500
C2844       C  0.68061887  0.17286015  0.02037214    -0.40800
C2845       C  0.68648734  0.19509134  0.03555982     0.32400
C2846       C  0.67658647  0.19015531  0.05895194     0.14100
F2847       F  0.64045973  0.11448420  0.06092553    -0.13200
F2848       F  0.70102538  0.22156809  0.02759851    -0.13700
F2849       F  0.65925911  0.12366099  0.01541161    -0.16000
F2850       F  0.68235419  0.21187230  0.07322331    -0.14500
F2851       F  0.68358932  0.14533965  0.10274423    -0.14500
F2852       F  0.60053772  0.16309528  0.12933221    -0.16000
C2853       C  0.58036066  0.25585019  0.19298174     0.14100
C2854       C  0.55167908  0.24211835  0.19711590     0.01100
C2855       C  0.53664017  0.21321562  0.19951205     0.16000
C2856       C  0.55012903  0.19847088  0.19923962     0.25500
C2857       C  0.57920407  0.21237333  0.19689376    -0.40900
C2858       C  0.59401410  0.24116867  0.19294798     0.32500
C2859       C  0.53800782  0.25805850  0.20169999     0.01100
F2860       F  0.50887292  0.19932229  0.20315455    -0.13200
F2861       F  0.62188398  0.25533756  0.18995668    -0.13700
C2862       C  0.53765842  0.27579670  0.18447157     0.16000
C2863       C  0.52651873  0.29223470  0.18988192     0.25500
C2864       C  0.51588283  0.29142642  0.21271113    -0.40800
C2865       C  0.51553182  0.27305050  0.22962955     0.32400
C2866       C  0.52632971  0.25649605  0.22416178     0.14100
F2867       F  0.54864499  0.27762319  0.16259790    -0.13200
F2868       F  0.50542759  0.27172673  0.25182916    -0.13700
F2869       F  0.52784656  0.31026506  0.17337231    -0.16000
F2870       F  0.52667657  0.23991417  0.24130891    -0.14500
F2871       F  0.59546546  0.28376423  0.19051534    -0.10900
F2872       F  0.53475206  0.17075088  0.20296277    -0.16000
C2873       C  0.70869042  0.17447020  0.30803856     0.14100
C2874       C  0.70423942  0.18592368  0.32838979     0.01100
C2875       C  0.68407525  0.19311160  0.32797746     0.16000
C2876       C  0.66963185  0.19040529  0.30707086     0.25500
C2877       C  0.67513304  0.18041884  0.28611145    -0.40900
C2878       C  0.69415716  0.17155862  0.28707946     0.32500
C2879       C  0.72340239  0.19478025  0.34873542     0.01100
F2880       F  0.67970452  0.20452916  0.34745845    -0.13200
F2881       F  0.69911886  0.16053322  0.26765888    -0.13700
C2882       C  0.74970427  0.21881813  0.34647307     0.16000
C2883       C  0.76538044  0.23205577  0.36668589     0.25500
C2884       C  0.75500988  0.22134248  0.38934059    -0.40800
C2885       C  0.73005071  0.19579975  0.39145859     0.32400
C2886       C  0.71415619  0.18262386  0.37121773     0.14100
F2887       F  0.75883094  0.23106812  0.32493639    -0.13200
F2888       F  0.71990769  0.18503956  0.41325806    -0.13700
F2889       F  0.78940109  0.25680937  0.36434576    -0.16000
F2890       F  0.68889197  0.15923673  0.37371075    -0.14500
F2891       F  0.72779031  0.16697364  0.30829678    -0.14500
F2892       F  0.65142737  0.19905863  0.30710604    -0.16000
C2893       C  0.52987460  0.11741775  0.30565340     0.14100
C2894       C  0.52066800  0.13572303  0.31017437     0.01100
C2895       C  0.52589333  0.15605352  0.29325981     0.16000
C2896       C  0.54163169  0.15930501  0.27310168     0.25500
C2897       C  0.55266584  0.14246839  0.26948907    -0.40900
C2898       C  0.54575799  0.12073131  0.28535608     0.32500
C2899       C  0.50946105  0.13671013  0.33376361     0.01100
F2900       F  0.51775176  0.17434439  0.29718986    -0.13200
F2901       F  0.55617306  0.10419818  0.28224438    -0.13700
C2902       C  0.52589440  0.14216868  0.35411229     0.16000
C2903       C  0.51846875  0.14885159  0.37562573     0.25500
C2904       C  0.49445531  0.15004738  0.37724705    -0.40800
C2905       C  0.47714256  0.14314197  0.35738160     0.32400
C2906       C  0.48461162  0.13651811  0.33572262     0.14100
F2907       F  0.55029361  0.14318720  0.35273756    -0.13200
F2908       F  0.45416992  0.14479902  0.35849694    -0.13700
F2909       F  0.53540197  0.15538212  0.39471986    -0.16000
F2910       F  0.46834219  0.13127121  0.31636386    -0.14500
F2911       F  0.52469029  0.09729327  0.32151898    -0.14500
F2912       F  0.54729110  0.17992633  0.25760982    -0.16000
C2913       C  0.74666419  0.34553532  0.18380178     0.14100
C2914       C  0.76021992  0.33101107  0.18050990     0.01100
C2915       C  0.78925531  0.34566765  0.17918452     0.16000
C2916       C  0.80458507  0.37428673  0.18306426     0.25500
C2917       C  0.79091476  0.38823162  0.18868724    -0.40900
C2918       C  0.76192993  0.37392438  0.18807758     0.32500
C2919       C  0.74419720  0.30077301  0.18378745     0.01100
F2920       F  0.80267532  0.33193624  0.17602091    -0.13200
F2921       F  0.74841048  0.38713442  0.19342914    -0.13700
C2922       C  0.72253063  0.28353425  0.16822733     0.16000
C2923       C  0.70305680  0.25626557  0.17474567     0.25500
C2924       C  0.70482711  0.24633183  0.19707425    -0.40800
C2925       C  0.72741056  0.26298575  0.21192501     0.32400
C2926       C  0.74713327  0.28995920  0.20523264     0.14100
F2927       F  0.71928775  0.29370003  0.14751658    -0.13200
F2928       F  0.72958034  0.25352155  0.23344022    -0.13700
F2929       F  0.68124122  0.24038883  0.16022354    -0.16000
F2930       F  0.76771056  0.30634139  0.22067255    -0.14500
F2931       F  0.71864949  0.33177483  0.18542938    -0.14500
F2932       F  0.83262141  0.38777725  0.18383803    -0.16000
C2933       C  0.56188841  0.98797947  0.27840610     0.14100
C2934       C  0.57285989  0.99575520  0.25539975     0.01100
C2935       C  0.57183853  0.97576097  0.23992512     0.16000
C2936       C  0.55848417  0.94801361  0.24681791     0.25500
C2937       C  0.54572551  0.93986421  0.26925601    -0.40900
C2938       C  0.54843566  0.96027533  0.28529045     0.32500
C2939       C  0.58313083  0.02411251  0.24684132     0.01100
F2940       F  0.58286183  0.98301850  0.21776731    -0.13200
F2941       F  0.53717508  0.95326960  0.30739422    -0.13700
C2942       C  0.60578053  0.04703264  0.25773874     0.16000
C2943       C  0.61496739  0.07379747  0.24974721     0.25500
C2944       C  0.60150297  0.07812735  0.23069772    -0.40800
C2945       C  0.57858574  0.05496435  0.22001540     0.32400
C2946       C  0.56952900  0.02829223  0.22805014     0.14100
F2947       F  0.61907465  0.04346630  0.27608990    -0.13200
F2948       F  0.56477916  0.05796704  0.20178027    -0.13700
F2949       F  0.63679238  0.09541263  0.26097675    -0.16000
F2950       F  0.54694034  0.00645634  0.21782290    -0.14500
F2951       F  0.56267568  0.00693489  0.29370228    -0.14500
F2952       F  0.55632649  0.92894094  0.23091602    -0.16000
loop_ 
_geom_bond_atom_site_label_1 
_geom_bond_atom_site_label_2 
_geom_bond_distance 
_geom_bond_site_symmetry_2 
_ccdc_geom_bond_type 
O1          Cr19   1.994       .  S
O1            C9   1.265       .  A
O2          Cr19   1.979       .  S
O2            C3   1.259       .  A
C3            O4   1.265       .  A
C3         C2877   1.486       .  S
O4          Cr20   2.006       .  S
O5          Cr20   1.968       .  S
O5            C6   1.259       .  A
C6            O7   1.269       .  A
C6         C2944   1.486       .  S
O7          Cr21   2.015       .  S
O8          Cr21   1.990       .  S
O8            C9   1.263       .  A
C9         C2897   1.473       .  S
O10         Cr19   1.986       .  S
O10          C18   1.263       .  A
O11         Cr19   2.008       .  S
O11          C12   1.267       .  A
C12          O13   1.258       .  A
C12        C2924   1.465       .  S
O13         Cr20   1.976       .  S
O14         Cr20   1.999       .  S
O14          C15   1.264       .  A
C15          O16   1.263       .  A
C15        C2837   1.489       .  S
O16         Cr21   1.989       .  S
O17         Cr21   2.015       .  S
O17          C18   1.268       .  A
C18        C2857   1.495       .  S
Cr19         O22   1.762       .  S
Cr20         O22   1.769       .  S
Cr21         O22   1.767       .  S
O23         Cr41   1.988       .  S
O23          C31   1.263       .  A
O24         Cr41   2.014       .  S
O24          C25   1.269       .  A
C25          O26   1.267       .  A
C25        C2824   1.498       .  S
O26         Cr42   2.000       .  S
O27         Cr42   2.017       .  S
O27          C28   1.267       .  A
C28          O29   1.258       .  A
C28        C2757   1.488       .  S
O29         Cr43   1.966       .  S
O30         Cr43   1.996       .  S
O30          C31   1.265       .  A
C31        C2884   1.464       .  S
O32         Cr41   2.017       .  S
O32          C40   1.265       .  A
O33         Cr41   1.985       .  S
O33          C34   1.263       .  A
C34          O35   1.265       .  A
C34        C2744   1.487       .  S
O35         Cr42   2.000       .  S
O36         Cr42   1.998       .  S
O36          C37   1.263       .  A
C37          O38   1.263       .  A
C37        C2797   1.475       .  S
O38         Cr43   2.000       .  S
O39         Cr43   1.977       .  S
O39          C40   1.258       .  A
C40        C2777   1.477       .  S
Cr41         O44   1.771       .  S
Cr42         O44   1.768       .  S
Cr43         O44   1.758       .  S
O45         Cr63   1.986       .  S
O45          C53   1.262       .  A
O46         Cr63   2.021       .  S
O46          C47   1.271       .  A
C47          O48   1.262       .  A
C47        C2637   1.491       .  S
O48         Cr64   1.978       .  S
O49         Cr64   2.002       .  S
O49          C50   1.264       .  A
C50          O51   1.261       .  A
C50        C2704   1.489       .  S
O51         Cr65   1.982       .  S
O52         Cr65   2.003       .  S
O52          C53   1.266       .  A
C53        C2677   1.476       .  S
O54         Cr63   2.023       .  S
O54          C62   1.269       .  A
O55         Cr63   1.987       .  S
O55          C56   1.262       .  A
C56          O57   1.262       .  A
C56        C2664   1.484       .  S
O57         Cr64   1.992       .  S
O58         Cr64   1.984       .  S
O58          C59   1.261       .  A
C59          O60   1.266       .  A
C59        C2724   1.469       .  S
O60         Cr65   1.999       .  S
O61         Cr65   1.975       .  S
O61          C62   1.258       .  A
C62        C2804   1.496       .  S
Cr63         O66   1.770       .  S
Cr64         O66   1.774       .  S
Cr65         O66   1.762       .  S
O67         Cr85   1.985       .  S
O67          C75   1.261       .  A
O68         Cr85   1.977       .  S
O68          C69   1.260       .  A
C69          O70   1.267       .  A
C69        C2597   1.491       .  S
O70         Cr86   2.015       .  S
O71         Cr86   1.998       .  S
O71          C72   1.267       .  A
C72          O73   1.267       .  A
C72        C2617   1.499       .  S
O73         Cr87   2.008       .  S
O74         Cr87   2.002       .  S
O74          C75   1.264       .  A
C75        C2697   1.468       .  S
O76         Cr85   1.981       .  S
O76          C84   1.262       .  A
O77         Cr85   1.996       .  S
O77          C78   1.262       .  A
C78          O79   1.265       .  A
C78        C2864   1.484       .  S
O79         Cr86   2.009       .  S
O80         Cr86   2.000       .  S
O80          C81   1.264       .  A
C81          O82   1.264       .  A
C81        C2564   1.497       .  S
O82         Cr87   2.001       .  S
O83         Cr87   2.002       .  S
O83          C84   1.265       .  A
C84        C2577   1.488       .  S
Cr85         O88   1.765       .  S
Cr86         O88   1.767       .  S
Cr87         O88   1.771       .  S
O89        Cr107   2.035       .  S
O89          C97   1.276       .  A
O90        Cr107   1.958       .  S
O90          C91   1.257       .  A
C91          O92   1.269       .  A
C91        C2537   1.485       .  S
O92        Cr108   2.020       .  S
O93        Cr108   1.990       .  S
O93          C94   1.254       .  A
C94          O95   1.257       .  A
C94        C2904   1.469       .  S
O95        Cr109   1.997       .  S
O96        Cr109   1.962       .  S
O96          C97   1.263       .  A
C97        C2604   1.487       .  S
O98        Cr107   1.991       .  S
O98         C106   1.256       .  A
O99        Cr107   2.010       .  S
O99         C100   1.267       .  A
C100        O101   1.257       .  A
C100       C2517   1.480       .  S
O101       Cr108   1.964       .  S
O102       Cr108   2.046       .  S
O102        C103   1.279       .  A
C103        O104   1.262       .  A
C103       C2784   1.486       .  S
O104       Cr109   1.954       .  S
O105       Cr109   1.994       .  S
O105        C106   1.259       .  A
C106       C2717   1.476       .  S
Cr107       O110   1.774       .  S
Cr108       O110   1.776       .  S
Cr109       O110   1.765       .  S
O111       Cr129   1.960       .  S
O111        C119   1.261       .  A
O112       Cr129   1.999       .  S
O112        C113   1.261       .  A
C113        O114   1.259       .  A
C113       C2684   1.477       .  S
O114       Cr130   1.993       .  S
O115       Cr130   2.016       .  S
O115        C116   1.267       .  A
C116        O117   1.256       .  A
C116       C2497   1.476       .  S
O117       Cr131   1.957       .  S
O118       Cr131   2.030       .  S
O118        C119   1.274       .  A
C119       C2764   1.479       .  S
O120       Cr129   1.989       .  S
O120        C128   1.259       .  A
O121       Cr129   1.958       .  S
O121        C122   1.258       .  A
C122        O123   1.274       .  A
C122       C2584   1.473       .  S
O123       Cr130   2.036       .  S
O124       Cr130   1.960       .  S
O124        C125   1.259       .  A
C125        O126   1.269       .  A
C125       C2477   1.477       .  S
O126       Cr131   2.015       .  S
O127       Cr131   1.979       .  S
O127        C128   1.254       .  A
C128       C2917   1.465       .  S
Cr129       O132   1.761       .  S
Cr130       O132   1.773       .  S
Cr131       O132   1.772       .  S
O133       Cr151   1.991       .  S
O133        C141   1.261       .  A
O134       Cr151   1.971       .  S
O134        C135   1.259       .  A
C135        O136   1.268       .  A
C135       C2397   1.486       .  S
O136       Cr152   2.018       .  S
O137       Cr152   1.990       .  S
O137        C138   1.265       .  A
C138        O139   1.270       .  A
C138       C2457   1.493       .  S
O139       Cr153   2.015       .  S
O140       Cr153   2.006       .  S
O140        C141   1.264       .  A
C141       C2377   1.474       .  S
O142       Cr151   1.970       .  S
O142        C150   1.260       .  A
O143       Cr151   1.998       .  S
O143        C144   1.263       .  A
C144        O145   1.264       .  A
C144       C2437   1.484       .  S
O145       Cr152   2.003       .  S
O146       Cr152   2.000       .  S
O146        C147   1.264   1_556  A
C147        O148   1.265   1_554  A
C147       C2557   1.495       .  S
O148       Cr153   2.004       .  S
O149       Cr153   2.022       .  S
O149        C150   1.269       .  A
C150       C2417   1.491       .  S
Cr151       O154   1.763       .  S
Cr152       O154   1.771       .  S
Cr153       O154   1.769       .  S
O155       Cr173   1.989       .  S
O155        C163   1.263       .  A
O156       Cr173   2.013       .  S
O156        C157   1.270       .  A
C157        O158   1.266       .  A
C157       C2357   1.488       .  S
O158       Cr174   1.993       .  S
O159       Cr174   2.000       .  S
O159        C160   1.261       .  A
C160        O161   1.261       .  A
C160       C2317   1.475       .  S
O161       Cr175   1.986       .  S
O162       Cr175   1.989       .  S
O162        C163   1.263       .  A
C163       C2404   1.466       .  S
O164       Cr173   2.003       .  S
O164        C172   1.264       .  A
O165       Cr173   1.985       .  S
O165        C166   1.260       .  A
C166        O167   1.259       .  A
C166       C2657   1.482       .  S
O167       Cr174   1.990       .  S
O168       Cr174   2.001       .  S
O168        C169   1.266       .  A
C169        O170   1.265       .  A
C169       C2337   1.480       .  S
O170       Cr175   1.998       .  S
O171       Cr175   1.983       .  S
O171        C172   1.262       .  A
C172       C2297   1.492       .  S
Cr173       O176   1.772       .  S
Cr174       O176   1.772       .  S
Cr175       O176   1.760       .  S
O177       Cr195   2.031       .  S
O177        C185   1.274       .  A
O178       Cr195   1.953       .  S
O178        C179   1.257       .  A
C179        O180   1.271       .  A
C179       C2277   1.485       .  S
O180       Cr196   2.032       .  S
O181       Cr196   1.999       .  S
O181        C182   1.260       .  A
C182        O183   1.259       .  A
C182       C2384   1.496       .  S
O183       Cr197   1.996       .  S
O184       Cr197   1.966       .  S
O184        C185   1.263       .  A
C185       C2264   1.481       .  S
O186       Cr195   1.984       .  S
O186        C194   1.255       .  A
O187       Cr195   2.010       .  S
O187        C188   1.267       .  A
C188        O189   1.259       .  A
C188       C2524   1.483       .  S
O189       Cr196   1.969       .  S
O190       Cr196   2.045       .  S
O190        C191   1.277       .  A
C191        O192   1.260       .  A
C191       C2304   1.480       .  S
O192       Cr197   1.957       .  S
O193       Cr197   1.994       .  S
O193        C194   1.259       .  A
C194       C2237   1.467       .  S
Cr195       O198   1.776       .  S
Cr196       O198   1.780       .  S
Cr197       O198   1.763       .  S
O199       Cr217   1.993       .  S
O199        C207   1.262       .  A
O200       Cr217   1.979       .  S
O200        C201   1.261       .  A
C201        O202   1.266       .  A
C201       C2257   1.490       .  S
O202       Cr218   2.011       .  S
O203       Cr218   1.988       .  S
O203        C204   1.264       .  A
C204        O205   1.269       .  A
C204       C2217   1.497       .  S
O205       Cr219   2.012       .  S
O206       Cr219   1.988       .  S
O206        C207   1.261       .  A
C207       C2197   1.462       .  S
O208       Cr217   1.977       .  S
O208        C216   1.261       .  A
O209       Cr217   1.997       .  S
O209        C210   1.263       .  A
C210        O211   1.263       .  A
C210       C2424   1.474       .  S
O211       Cr218   1.998       .  S
O212       Cr218   2.003       .  S
O212        C213   1.264       .  A
C213        O214   1.261       .  A
C213       C2844   1.483   1_556  S
O214       Cr219   1.984       .  S
O215       Cr219   2.011       .  S
O215        C216   1.267       .  A
C216       C2177   1.489       .  S
Cr217       O220   1.762       .  S
Cr218       O220   1.767       .  S
Cr219       O220   1.767       .  S
O221       Cr239   1.992       .  S
O221        C229   1.263       .  A
O222       Cr239   2.015       .  S
O222        C223   1.269       .  A
C223        O224   1.261       .  A
C223       C2164   1.489       .  S
O224       Cr240   1.977       .  S
O225       Cr240   2.003       .  S
O225        C226   1.263       .  A
C226        O227   1.260       .  A
C226       C2204   1.484       .  S
O227       Cr241   1.978       .  S
O228       Cr241   1.999       .  S
O228        C229   1.265       .  A
C229       C2144   1.468       .  S
O230       Cr239   2.014       .  S
O230        C238   1.266       .  A
O231       Cr239   1.995       .  S
O231        C232   1.264       .  A
C232        O233   1.263       .  A
C232       C2737   1.487       .  S
O233       Cr240   1.992       .  S
O234       Cr240   1.985       .  S
O234        C235   1.262       .  A
C235        O236   1.267       .  A
C235       C2244   1.479       .  S
O236       Cr241   2.001       .  S
O237       Cr241   1.982       .  S
O237        C238   1.261       .  A
C238       C2344   1.490       .  S
Cr239       O242   1.771       .  S
Cr240       O242   1.770       .  S
Cr241       O242   1.759       .  S
O243       Cr261   1.982       .  S
O243        C251   1.262       .  A
O244       Cr261   1.973       .  S
O244        C245   1.260       .  A
C245        O246   1.268       .  A
C245       C2137   1.492       .  S
O246       Cr262   2.022       .  S
O247       Cr262   1.979       .  S
O247        C248   1.262       .  A
C248        O249   1.268       .  A
C248       C2117   1.486       .  S
O249       Cr263   2.008       .  S
O250       Cr263   1.998       .  S
O250        C251   1.264       .  A
C251       C2324   1.480       .  S
O252       Cr261   1.982       .  S
O252        C260   1.262       .  A
O253       Cr261   1.989       .  S
O253        C254   1.261       .  A
C254        O255   1.261       .  A
C254       C2184   1.465       .  S
O255       Cr262   1.991       .  S
O256       Cr262   2.005       .  S
O256        C257   1.265       .  A
C257        O258   1.262       .  A
C257       C2484   1.481   1_556  S
O258       Cr263   1.985       .  S
O259       Cr263   2.016       .  S
O259        C260   1.268       .  A
C260       C2444   1.495       .  S
Cr261       O264   1.757       .  S
Cr262       O264   1.771       .  S
Cr263       O264   1.768       .  S
O265       Cr283   1.986       .  S
O265        C273   1.261       .  A
O266       Cr283   1.975       .  S
O266        C267   1.260       .  A
C267        O268   1.267       .  A
C267       C2044   1.490       .  S
O268       Cr284   2.016       .  S
O269       Cr284   1.966       .  S
O269        C270   1.262       .  A
C270        O271   1.273       .  A
C270       C2097   1.490       .  S
O271       Cr285   2.025       .  S
O272       Cr285   1.990       .  S
O272        C273   1.263       .  A
C273       C2057   1.463       .  S
O274       Cr283   1.963       .  S
O274        C282   1.257       .  A
O275       Cr283   1.993       .  S
O275        C276   1.262       .  A
C276        O277   1.258       .  A
C276       C2084   1.470       .  S
O277       Cr284   1.983       .  S
O278       Cr284   1.993       .  S
O278        C279   1.261       .  A
C279        O280   1.262       .  A
C279       C1997   1.478       .  S
O280       Cr285   1.992       .  S
O281       Cr285   2.025       .  S
O281        C282   1.269       .  A
C282       C2017   1.487       .  S
Cr283       O286   1.758       .  S
Cr284       O286   1.767       .  S
Cr285       O286   1.774       .  S
O287       Cr305   2.000       .  S
O287        C295   1.263       .  A
O288       Cr305   2.007       .  S
O288        C289   1.267       .  A
C289        O290   1.262       .  A
C289       C2157   1.485       .  S
O290       Cr306   1.982       .  S
O291       Cr306   2.021       .  S
O291        C292   1.270       .  A
C292        O293   1.259       .  A
C292       C2064   1.488       .  S
O293       Cr307   1.968       .  S
O294       Cr307   1.989       .  S
O294        C295   1.261       .  A
C295       C1937   1.471       .  S
O296       Cr305   2.014       .  S
O296        C304   1.268       .  A
O297       Cr305   1.987       .  S
O297        C298   1.263       .  A
C298        O299   1.268       .  A
C298       C1917   1.496       .  S
O299       Cr306   2.015       .  S
O300       Cr306   1.993       .  S
O300        C301   1.261       .  A
C301        O302   1.261       .  A
C301       C1977   1.468       .  S
O302       Cr307   1.998       .  S
O303       Cr307   1.968       .  S
O303        C304   1.260       .  A
C304       C1964   1.485       .  S
Cr305       O308   1.766       .  S
Cr306       O308   1.766       .  S
Cr307       O308   1.761       .  S
O309       Cr327   2.038       .  S
O309        C317   1.275       .  A
O310       Cr327   1.974       .  S
O310        C311   1.260       .  A
C311        O312   1.265       .  A
C311       C2284   1.486       .  S
O312       Cr328   2.012       .  S
O313       Cr328   1.991       .  S
O313        C314   1.260       .  A
C314        O315   1.262       .  A
C314       C1904   1.477       .  S
O315       Cr329   1.993       .  S
O316       Cr329   1.949       .  S
O316        C317   1.258       .  A
C317       C1864   1.475       .  S
O318       Cr327   1.995       .  S
O318        C326   1.259       .  A
O319       Cr327   2.027       .  S
O319        C320   1.272       .  A
C320        O321   1.258       .  A
C320       C1837   1.473       .  S
O321       Cr328   1.954       .  S
O322       Cr328   2.027       .  S
O322        C323   1.270       .  A
C323        O324   1.258       .  A
C323       C1957   1.471       .  S
O324       Cr329   1.960       .  S
O325       Cr329   1.989       .  S
O325        C326   1.259       .  A
C326       C1877   1.476       .  S
Cr327       O330   1.777       .  S
Cr328       O330   1.777       .  S
Cr329       O330   1.757       .  S
O331       Cr349   1.969       .  S
O331        C339   1.264       .  A
O332       Cr349   2.004       .  S
O332        C333   1.261       .  A
C333        O334   1.256       .  A
C333       C1944   1.477       .  S
O334       Cr350   1.984       .  S
O335       Cr350   2.026       .  S
O335        C336   1.269       .  A
C336        O337   1.257       .  A
C336       C1824   1.493       .  S
O337       Cr351   1.960       .  S
O338       Cr351   2.033       .  S
O338        C339   1.275       .  A
C339       C1897   1.487       .  S
O340       Cr349   1.998       .  S
O340        C348   1.260       .  A
O341       Cr349   1.960       .  S
O341        C342   1.261       .  A
C342        O343   1.274       .  A
C342       C2024   1.478       .  S
O343       Cr350   2.037       .  S
O344       Cr350   1.953       .  S
O344        C345   1.255       .  A
C345        O346   1.271       .  A
C345       C1777   1.485       .  S
O346       Cr351   2.027       .  S
O347       Cr351   1.984       .  S
O347        C348   1.257       .  A
C348       C1804   1.471       .  S
Cr349       O352   1.766       .  S
Cr350       O352   1.778       .  S
Cr351       O352   1.774       .  S
O353       Cr371   1.991       .  S
O353        C361   1.264       .  A
O354       Cr371   2.011       .  S
O354        C355   1.268       .  A
C355        O356   1.264       .  A
C355       C2364   1.496       .  S
O356       Cr372   1.988       .  S
O357       Cr372   2.016       .  S
O357        C358   1.265       .  A
C358        O359   1.257       .  A
C358       C1764   1.472       .  S
O359       Cr373   1.973       .  S
O360       Cr373   1.992       .  S
O360        C361   1.264       .  A
C361       C2037   1.471       .  S
O362       Cr371   2.002       .  S
O362        C370   1.265       .  A
O363       Cr371   1.984       .  S
O363        C364   1.261       .  A
C364        O365   1.265       .  A
C364       C1744   1.482       .  S
O365       Cr372   2.000       .  S
O366       Cr372   1.989       .  S
O366        C367   1.261       .  A
C367        O368   1.266       .  A
C367       C1884   1.481       .  S
O368       Cr373   2.008       .  S
O369       Cr373   1.984       .  S
O369        C370   1.262       .  A
C370       C1984   1.490       .  S
Cr371       O374   1.772       .  S
Cr372       O374   1.772       .  S
Cr373       O374   1.761       .  S
O375       Cr393   2.000       .  S
O375        C383   1.267       .  A
O376       Cr393   1.978       .  S
O376        C377   1.261       .  A
C377        O378   1.265       .  A
C377       C1857   1.488       .  S
O378       Cr394   2.007       .  S
O379       Cr394   1.988       .  S
O379        C380   1.261       .  A
C380        O381   1.263       .  A
C380       C1724   1.488       .  S
O381       Cr395   1.995       .  S
O382       Cr395   1.988       .  S
O382        C383   1.263       .  A
C383       C1757   1.478       .  S
O384       Cr393   1.980       .  S
O384        C392   1.261       .  A
O385       Cr393   2.001       .  S
O385        C386   1.265       .  A
C386        O387   1.262       .  A
C386       C1797   1.470       .  S
O387       Cr394   1.989       .  S
O388       Cr394   2.008       .  S
O388        C389   1.268       .  A
C389        O390   1.262       .  A
C389       C1697   1.482       .  S
O390       Cr395   1.978       .  S
O391       Cr395   1.998       .  S
O391        C392   1.263       .  A
C392       C2077   1.481       .  S
Cr393       O396   1.759       .  S
Cr394       O396   1.768       .  S
Cr395       O396   1.771       .  S
O397       Cr415   1.983       .  S
O397        C405   1.261       .  A
O398       Cr415   2.020       .  S
O398        C399   1.271       .  A
C399        O400   1.265       .  A
C399       C1604   1.498       .  S
O400       Cr416   1.991       .  S
O401       Cr416   1.994       .  S
O401        C402   1.261       .  A
C402        O403   1.260       .  A
C402       C1657   1.488       .  S
O403       Cr417   1.986       .  S
O404       Cr417   1.986       .  S
O404        C405   1.263       .  A
C405       C1644   1.460       .  S
O406       Cr415   2.023       .  S
O406        C414   1.268       .  A
O407       Cr415   1.989       .  S
O407        C408   1.262       .  A
C408        O409   1.260       .  A
C408       C1844   1.472   1_554  S
O409       Cr416   1.989       .  S
O410       Cr416   1.997       .  S
O410        C411   1.265       .  A
C411        O412   1.266       .  A
C411       C1684   1.483       .  S
O412       Cr417   2.001       .  S
O413       Cr417   1.983       .  S
O413        C414   1.261       .  A
C414       C1617   1.497       .  S
Cr415       O418   1.778       .  S
Cr416       O418   1.772       .  S
Cr417       O418   1.765       .  S
O419       Cr437   1.983       .  S
O419        C427   1.263       .  A
O420       Cr437   1.979       .  S
O420        C421   1.259       .  A
C421        O422   1.263       .  A
C421       C1564   1.484       .  S
O422       Cr438   2.005       .  S
O423       Cr438   1.988       .  S
O423        C424   1.265       .  A
C424        O425   1.267       .  A
C424       C2937   1.478       .  S
O425       Cr439   2.004       .  S
O426       Cr439   1.993       .  S
O426        C427   1.264       .  A
C427       C1664   1.473       .  S
O428       Cr437   1.978       .  S
O428        C436   1.260       .  A
O429       Cr437   1.993       .  S
O429        C430   1.264       .  A
C430        O431   1.264       .  A
C430       C1577   1.473       .  S
O431       Cr438   1.995       .  S
O432       Cr438   1.991       .  S
O432        C433   1.261       .  A
C433        O434   1.263       .  A
C433       C1704   1.483       .  S
O434       Cr439   1.992       .  S
O435       Cr439   2.005       .  S
O435        C436   1.264       .  A
C436       C1537   1.490       .  S
Cr437       O440   1.759       .  S
Cr438       O440   1.770       .  S
Cr439       O440   1.772       .  S
O441       Cr459   1.994       .  S
O441        C449   1.263       .  A
O442       Cr459   1.985       .  S
O442        C443   1.261       .  A
C443        O444   1.262       .  A
C443       C1637   1.485       .  S
O444       Cr460   1.995       .  S
O445       Cr460   1.978       .  S
O445        C446   1.262       .  A
C446        O447   1.268       .  A
C446       C2504   1.488       .  S
O447       Cr461   2.008       .  S
O448       Cr461   1.989       .  S
O448        C449   1.259       .  A
C449       C1517   1.468       .  S
O450       Cr459   1.975       .  S
O450        C458   1.261       .  A
O451       Cr459   1.999       .  S
O451        C452   1.267       .  A
C452        O453   1.266       .  A
C452       C1544   1.482       .  S
O453       Cr460   1.994       .  S
O454       Cr460   1.998       .  S
O454        C455   1.262       .  A
C455        O456   1.262       .  A
C455       C1784   1.492       .  S
O456       Cr461   1.992       .  S
O457       Cr461   2.015       .  S
O457        C458   1.268       .  A
C458       C1497   1.493       .  S
Cr459       O462   1.764       .  S
Cr460       O462   1.771       .  S
Cr461       O462   1.775       .  S
O463       Cr481   2.037       .  S
O463        C471   1.274       .  A
O464       Cr481   1.964       .  S
O464        C465   1.258       .  A
C465        O466   1.278       .  A
C465       C1484   1.501       .  S
O466       Cr482   2.050       .  S
O467       Cr482   1.987       .  S
O467        C468   1.256       .  A
C468        O469   1.258       .  A
C468       C1524   1.481       .  S
O469       Cr483   1.990       .  S
O470       Cr483   1.957       .  S
O470        C471   1.260       .  A
C471       C1444   1.478       .  S
O472       Cr481   1.986       .  S
O472        C480   1.256       .  A
O473       Cr481   2.018       .  S
O473        C474   1.268       .  A
C474        O475   1.257       .  A
C474       C1924   1.497   1_554  S
O475       Cr482   1.970       .  S
O476       Cr482   2.063       .  S
O476        C477   1.282       .  A
C477        O478   1.260       .  A
C477       C1624   1.488       .  S
O478       Cr483   1.953       .  S
O479       Cr483   1.991       .  S
O479        C480   1.259       .  A
C480       C1464   1.472       .  S
Cr481       O484   1.779       .  S
Cr482       O484   1.774       .  S
Cr483       O484   1.763       .  S
O485       Cr503   1.989       .  S
O485        C493   1.265       .  A
O486       Cr503   2.006       .  S
O486        C487   1.266       .  A
C487        O488   1.263       .  A
C487       C1417   1.491       .  S
O488       Cr504   1.989       .  S
O489       Cr504   2.002       .  S
O489        C490   1.260       .  A
C490        O491   1.255       .  A
C490       C1404   1.466       .  S
O491       Cr505   1.976       .  S
O492       Cr505   1.991       .  S
O492        C493   1.266       .  A
C493       C1557   1.468       .  S
O494       Cr503   2.013       .  S
O494        C502   1.263       .  A
O495       Cr503   1.999       .  S
O495        C496   1.267   1_554  A
C496        O497   1.264   1_556  A
C496       C1737   1.486       .  S
O497       Cr504   1.994       .  S
O498       Cr504   1.973       .  S
O498        C499   1.260       .  A
C499        O500   1.267       .  A
C499       C1457   1.468       .  S
O500       Cr505   1.996       .  S
O501       Cr505   1.982       .  S
O501        C502   1.258       .  A
C502       C1677   1.489       .  S
Cr503       O506   1.771       .  S
Cr504       O506   1.775       .  S
Cr505       O506   1.763       .  S
O507       Cr525   1.991       .  S
O507        C515   1.262       .  A
O508       Cr525   1.976       .  S
O508        C509   1.260       .  A
C509        O510   1.266       .  A
C509       C1437   1.485       .  S
O510       Cr526   2.007       .  S
O511       Cr526   1.990       .  S
O511        C512   1.263       .  A
C512        O513   1.267       .  A
C512       C2624   1.488       .  S
O513       Cr527   2.012       .  S
O514       Cr527   1.995       .  S
O514        C515   1.262       .  A
C515       C1397   1.467       .  S
O516       Cr525   1.979       .  S
O516        C524   1.261       .  A
O517       Cr525   1.998       .  S
O517        C518   1.263       .  A
C518        O519   1.263       .  A
C518       C1504   1.472       .  S
O519       Cr526   1.998       .  S
O520       Cr526   2.001       .  S
O520        C521   1.265       .  A
C521        O522   1.263       .  A
C521       C2004   1.486       .  S
O522       Cr527   1.986       .  S
O523       Cr527   2.012       .  S
O523        C524   1.268       .  A
C524       C1584   1.489       .  S
Cr525       O528   1.762       .  S
Cr526       O528   1.766       .  S
Cr527       O528   1.767       .  S
O529       Cr547   2.015       .  S
O529        C537   1.270       .  A
O530       Cr547   1.974       .  S
O530        C531   1.259       .  A
C531        O532   1.267       .  A
C531       C2817   1.483       .  S
O532       Cr548   2.016       .  S
O533       Cr548   1.987       .  S
O533        C534   1.257       .  A
C534        O535   1.260       .  A
C534       C1337   1.483   1_655  S
O535       Cr549   1.996       .  S
O536       Cr549   1.962       .  S
O536        C537   1.262       .  A
C537       C1317   1.474       .  S
O538       Cr547   1.994       .  S
O538        C546   1.259       .  A
O539       Cr547   2.003       .  S
O539        C540   1.266       .  A
C540        O541   1.258       .  A
C540       C1304   1.475       .  S
O541       Cr548   1.961       .  S
O542       Cr548   2.037   1_455  S
O542        C543   1.274       .  A
C543        O544   1.261   1_455  A
C543       C1384   1.484       .  S
O544       Cr549   1.963       .  S
O545       Cr549   1.991       .  S
O545        C546   1.258       .  A
C546       C1357   1.474       .  S
Cr547       O550   1.781       .  S
Cr548       O550   1.779       .  S
Cr549       O550   1.766       .  S
O551       Cr569   1.996       .  S
O551        C559   1.263       .  A
O552       Cr569   1.983       .  S
O552        C553   1.260       .  A
C553        O554   1.266       .  A
C553       C1237   1.492       .  S
O554       Cr570   2.015       .  S
O555       Cr570   1.987       .  S
O555        C556   1.263       .  A
C556        O557   1.266       .  A
C556       C2104   1.483       .  S
O557       Cr571   2.002       .  S
O558       Cr571   1.992       .  S
O558        C559   1.262       .  A
C559       C1344   1.469       .  S
O560       Cr569   1.984       .  S
O560        C568   1.262       .  A
O561       Cr569   2.002       .  S
O561        C562   1.265       .  A
C562        O563   1.263       .  A
C562       C1284   1.474       .  S
O563       Cr570   1.992       .  S
O564       Cr570   2.013       .  S
O564        C565   1.266       .  A
C565        O566   1.264       .  A
C565       C1224   1.498       .  S
O566       Cr571   1.992       .  S
O567       Cr571   2.004       .  S
O567        C568   1.265       .  A
C568       C1257   1.488       .  S
Cr569       O572   1.766       .  S
Cr570       O572   1.771       .  S
Cr571       O572   1.770       .  S
O573       Cr591   1.991       .  S
O573        C581   1.261       .  A
O574       Cr591   2.022       .  S
O574        C575   1.272       .  A
C575        O576   1.262       .  A
C575       C2544   1.484       .  S
O576       Cr592   1.970   1_545  S
O577       Cr592   2.011       .  S
O577        C578   1.266       .  A
C578        O579   1.258   1_565  A
C578       C1184   1.481       .  S
O579       Cr593   1.969       .  S
O580       Cr593   1.993       .  S
O580        C581   1.262       .  A
C581       C1244   1.469       .  S
O582       Cr591   2.027       .  S
O582        C590   1.270       .  A
O583       Cr591   1.985       .  S
O583        C584   1.261       .  A
C584        O585   1.262       .  A
C584       C1164   1.485       .  S
O585       Cr592   1.997   1_545  S
O586       Cr592   1.997       .  S
O586        C587   1.263       .  A
C587        O588   1.264       .  A
C587       C1204   1.476       .  S
O588       Cr593   2.000   1_565  S
O589       Cr593   1.961       .  S
O589        C590   1.258       .  A
C590       C1377   1.487       .  S
Cr591       O594   1.771       .  S
Cr592       O594   1.770   1_565  S
Cr593       O594   1.755       .  S
O595       Cr613   1.981       .  S
O595        C603   1.261       .  A
O596       Cr613   1.975       .  S
O596        C597   1.260       .  A
C597        O598   1.264       .  A
C597       C1324   1.482       .  S
O598       Cr614   2.001       .  S
O599       Cr614   1.977       .  S
O599        C600   1.263       .  A
C600        O601   1.267       .  A
C600       C1717   1.477       .  S
O601       Cr615   2.009       .  S
O602       Cr615   2.007       .  S
O602        C603   1.266       .  A
C603       C1117   1.477       .  S
O604       Cr613   1.976       .  S
O604        C612   1.262       .  A
O605       Cr613   1.994       .  S
O605        C606   1.262   1_565  A
C606        O607   1.263       .  A
C606       C1264   1.474       .  S
O607       Cr614   2.001   1_545  S
O608       Cr614   1.983       .  S
O608        C609   1.260       .  A
C609        O610   1.262       .  A
C609       C1097   1.478       .  S
O610       Cr615   1.993       .  S
O611       Cr615   2.001       .  S
O611        C612   1.266       .  A
C612       C1137   1.481       .  S
Cr613       O616   1.759       .  S
Cr614       O616   1.764       .  S
Cr615       O616   1.770       .  S
O617       Cr635   1.998       .  S
O617        C625   1.264       .  A
O618       Cr635   2.011       .  S
O618        C619   1.270       .  A
C619        O620   1.266       .  A
C619       C2644   1.496       .  S
O620       Cr636   1.990       .  S
O621       Cr636   2.005       .  S
O621        C622   1.262       .  A
C622        O623   1.258       .  A
C622       C1124   1.473       .  S
O623       Cr637   1.984       .  S
O624       Cr637   1.980       .  S
O624        C625   1.261       .  A
C625       C1077   1.472       .  S
O626       Cr635   2.009       .  S
O626        C634   1.266       .  A
O627       Cr635   1.997       .  S
O627        C628   1.263       .  A
C628        O629   1.260       .  A
C628       C1057   1.488       .  S
O629       Cr636   1.989       .  S
O630       Cr636   2.003       .  S
O630        C631   1.267       .  A
C631        O632   1.265       .  A
C631       C1364   1.485       .  S
O632       Cr637   1.993       .  S
O633       Cr637   1.976       .  S
O633        C634   1.261       .  A
C634       C1197   1.484       .  S
Cr635       O638   1.772       .  S
Cr636       O638   1.772       .  S
Cr637       O638   1.758       .  S
O639       Cr657   1.953       .  S
O639        C647   1.260       .  A
O640       Cr657   1.991   1_655  S
O640        C641   1.259       .  A
C641        O642   1.258       .  A
C641       C1084   1.477       .  S
O642       Cr658   1.990       .  S
O643       Cr658   2.021   1_455  S
O643        C644   1.268       .  A
C644        O645   1.258       .  A
C644       C1817   1.481       .  S
O645       Cr659   1.965       .  S
O646       Cr659   2.034       .  S
O646        C647   1.274       .  A
C647       C1177   1.476       .  S
O648       Cr657   1.990       .  S
O648        C656   1.259       .  A
O649       Cr657   1.951   1_655  S
O649        C650   1.258       .  A
C650        O651   1.273       .  A
C650       C1144   1.461       .  S
O651       Cr658   2.028       .  S
O652       Cr658   1.961       .  S
O652        C653   1.256   1_655  A
C653        O654   1.270       .  A
C653       C1037   1.498   1_455  S
O654       Cr659   2.027       .  S
O655       Cr659   1.997       .  S
O655        C656   1.259       .  A
C656       C1277   1.476       .  S
Cr657       O660   1.760       .  S
Cr658       O660   1.775   1_655  S
Cr659       O660   1.774       .  S
O661       Cr679   1.999       .  S
O661        C669   1.263       .  A
O662       Cr679   1.970       .  S
O662        C663   1.259       .  A
C663        O664   1.269       .  A
C663        C997   1.483       .  S
O664       Cr680   2.018       .  S
O665       Cr680   1.967       .  S
O665        C666   1.259       .  A
C666        O667   1.268       .  A
C666       C2124   1.485       .  S
O667       Cr681   2.017       .  S
O668       Cr681   1.994       .  S
O668        C669   1.262       .  A
C669        C964   1.471       .  S
O670       Cr679   1.974       .  S
O670        C678   1.261       .  A
O671       Cr679   2.002       .  S
O671        C672   1.263   1_655  A
C672        O673   1.259   1_455  A
C672       C1017   1.465       .  S
O673       Cr680   1.984       .  S
O674       Cr680   2.011       .  S
O674        C675   1.267       .  A
C675        O676   1.263       .  A
C675       C1044   1.486       .  S
O676       Cr681   1.989       .  S
O677       Cr681   2.024       .  S
O677        C678   1.270       .  A
C678        C977   1.491       .  S
Cr679       O682   1.763       .  S
Cr680       O682   1.769       .  S
Cr681       O682   1.767       .  S
O683       Cr701   1.995       .  S
O683        C691   1.262       .  A
O684       Cr701   2.016       .  S
O684        C685   1.269       .  A
C685        O686   1.263       .  A
C685       C1597   1.493       .  S
O686       Cr702   1.989       .  S
O687       Cr702   2.010   1_545  S
O687        C688   1.268   1_545  A
C688        O689   1.260       .  A
C688        C924   1.484   1_565  S
O689       Cr703   1.972       .  S
O690       Cr703   1.989       .  S
O690        C691   1.261       .  A
C691       C1004   1.465       .  S
O692       Cr701   2.018       .  S
O692        C700   1.268       .  A
O693       Cr701   1.979       .  S
O693        C694   1.260       .  A
C694        O695   1.265       .  A
C694       C1157   1.480       .  S
O695       Cr702   1.997       .  S
O696       Cr702   2.005   1_545  S
O696        C697   1.263       .  A
C697        O698   1.263       .  A
C697        C937   1.496       .  S
O698       Cr703   1.999   1_545  S
O699       Cr703   1.969       .  S
O699        C700   1.261       .  A
C700        C897   1.488       .  S
Cr701       O704   1.772       .  S
Cr702       O704   1.769       .  S
Cr703       O704   1.759       .  S
O705       Cr723   1.994       .  S
O705        C713   1.261       .  A
O706       Cr723   1.975       .  S
O706        C707   1.261       .  A
C707        O708   1.271       .  A
C707        C857   1.496       .  S
O708       Cr724   2.028       .  S
O709       Cr724   1.991       .  S
O709        C710   1.264       .  A
C710        O711   1.270       .  A
C710       C2464   1.500       .  S
O711       Cr725   2.015       .  S
O712       Cr725   1.984       .  S
O712        C713   1.259       .  A
C713        C917   1.464       .  S
O714       Cr723   1.972       .  S
O714        C722   1.260       .  A
O715       Cr723   1.998       .  S
O715        C716   1.262       .  A
C716        O717   1.264       .  A
C716        C884   1.478       .  S
O717       Cr724   2.004       .  S
O718       Cr724   2.025       .  S
O718        C719   1.269       .  A
C719        O720   1.259       .  A
C719       C1217   1.498       .  S
O720       Cr725   1.976       .  S
O721       Cr725   2.018       .  S
O721        C722   1.269       .  A
C722       C1024   1.490       .  S
Cr723       O726   1.765       .  S
Cr724       O726   1.771       .  S
Cr725       O726   1.772       .  S
O727       Cr745   1.994       .  S
O727        C735   1.264       .  A
O728       Cr745   1.973       .  S
O728        C729   1.259   1_545  A
C729        O730   1.265       .  A
C729        C817   1.488       .  S
O730       Cr746   2.011   1_565  S
O731       Cr746   1.991       .  S
O731        C732   1.264       .  A
C732        O733   1.267       .  A
C732       C2224   1.487       .  S
O733       Cr747   2.016       .  S
O734       Cr747   1.988       .  S
O734        C735   1.262       .  A
C735        C837   1.463       .  S
O736       Cr745   1.981       .  S
O736        C744   1.260       .  A
O737       Cr745   2.001   1_565  S
O737        C738   1.265       .  A
C738        O739   1.264       .  A
C738        C984   1.478       .  S
O739       Cr746   1.997   1_565  S
O740       Cr746   1.999       .  S
O740        C741   1.265       .  A
C741        O742   1.263       .  A
C741       C1104   1.485       .  S
O742       Cr747   1.983       .  S
O743       Cr747   2.022       .  S
O743        C744   1.269       .  A
C744        C877   1.494       .  S
Cr745       O748   1.761       .  S
Cr746       O748   1.768       .  S
Cr747       O748   1.770       .  S
O749       Cr767   1.986       .  S
O749        C757   1.263       .  A
O750       Cr767   2.028       .  S
O750        C751   1.271       .  A
C751        O752   1.267       .  A
C751       C1477   1.505       .  S
O752       Cr768   2.003   1_455  S
O753       Cr768   2.006       .  S
O753        C754   1.264       .  A
C754        O755   1.259       .  A
C754        C844   1.486       .  S
O755       Cr769   1.973   1_655  S
O756       Cr769   2.005       .  S
O756        C757   1.267       .  A
C757        C864   1.471       .  S
O758       Cr767   2.021       .  S
O758        C766   1.267       .  A
O759       Cr767   1.984       .  S
O759        C760   1.261       .  A
C760        O761   1.262   1_455  A
C760       C1297   1.484       .  S
O761       Cr768   1.993       .  S
O762       Cr768   2.004       .  S
O762        C763   1.264       .  A
C763        O764   1.266       .  A
C763        C804   1.484       .  S
O764       Cr769   2.010   1_655  S
O765       Cr769   1.982       .  S
O765        C766   1.260       .  A
C766        C944   1.495       .  S
Cr767       O770   1.775       .  S
Cr768       O770   1.773   1_655  S
Cr769       O770   1.764       .  S
O771       Cr789   2.019       .  S
O771        C779   1.271       .  A
O772       Cr789   1.969       .  S
O772        C773   1.258       .  A
C773        O774   1.264       .  A
C773       C1424   1.481       .  S
O774       Cr790   2.009       .  S
O775       Cr790   1.989       .  S
O775        C776   1.259       .  A
C776        O777   1.262       .  A
C776        C957   1.485       .  S
O777       Cr791   1.999       .  S
O778       Cr791   1.970       .  S
O778        C779   1.264       .  A
C779        C824   1.483       .  S
O780       Cr789   1.993       .  S
O780        C788   1.258       .  A
O781       Cr789   2.009       .  S
O781        C782   1.268       .  A
C782        O783   1.259       .  A
C782       C1064   1.476       .  S
O783       Cr790   1.959       .  S
O784       Cr790   2.024       .  S
O784        C785   1.270       .  A
C785        O786   1.261       .  A
C785        C904   1.475       .  S
O786       Cr791   1.967       .  S
O787       Cr791   1.995       .  S
O787        C788   1.259       .  A
C788        C797   1.481       .  S
Cr789       O792   1.778       .  S
Cr790       O792   1.782       .  S
Cr791       O792   1.764       .  S
C793        C794   1.409       .  A
C793        C798   1.406       .  A
C793        F811   1.357       .  S
C794        C799   1.490   1_565  S
C794        C795   1.406       .  A
C795        C796   1.401       .  A
C795        F800   1.358       .  S
C796        C797   1.406       .  A
C796        F812   1.358       .  S
C797        C798   1.407       .  A
C798        F801   1.358       .  S
C799        C802   1.409       .  A
C799        C806   1.406       .  A
C802        C803   1.408       .  A
C802        F807   1.358       .  S
C803        C804   1.408       .  A
C803        F809   1.358       .  S
C804        C805   1.405       .  A
C805        C806   1.401       .  A
C805        F808   1.358       .  S
C806        F810   1.358       .  S
C813        C814   1.405       .  A
C813        C818   1.397       .  A
C813        F831   1.358   1_556  S
C814        C819   1.483   1_556  S
C814        C815   1.405       .  A
C815        C816   1.401       .  A
C815        F820   1.358       .  S
C816        C817   1.412       .  A
C816        F832   1.358       .  S
C817        C818   1.411       .  A
C818        F821   1.358   1_565  S
C819        C822   1.406       .  A
C819        C826   1.406       .  A
C822        C823   1.401       .  A
C822        F827   1.358       .  S
C823        C824   1.410       .  A
C823        F829   1.358       .  S
C824        C825   1.409       .  A
C825        C826   1.397       .  A
C825        F828   1.358       .  S
C826        F830   1.358   1_554  S
C833        C834   1.406       .  A
C833        C838   1.396       .  A
C833        F851   1.358       .  S
C834        C839   1.481   1_556  S
C834        C835   1.407       .  A
C835        C836   1.400       .  A
C835        F840   1.358   1_556  S
C836        C837   1.403       .  A
C836        F852   1.358       .  S
C837        C838   1.402       .  A
C838        F841   1.358       .  S
C839        C842   1.403       .  A
C839        C846   1.405       .  A
C842        C843   1.402       .  A
C842        F847   1.358       .  S
C843        C844   1.413       .  A
C843        F849   1.358       .  S
C844        C845   1.409       .  A
C845        C846   1.394       .  A
C845        F848   1.358       .  S
C846        F850   1.359   1_554  S
C853        C854   1.406       .  A
C853        C858   1.400   1_554  A
C853        F871   1.358       .  S
C854        C859   1.491       .  S
C854        C855   1.406   1_554  A
C855        C856   1.403       .  A
C855        F860   1.358       .  S
C856        C857   1.413       .  A
C856        F872   1.357       .  S
C857        C858   1.413       .  A
C858        F861   1.358       .  S
C859        C862   1.410       .  A
C859        C866   1.409       .  A
C862        C863   1.404       .  A
C862        F867   1.358       .  S
C863        C864   1.404       .  A
C863        F869   1.358       .  S
C864        C865   1.402       .  A
C865        C866   1.398       .  A
C865        F868   1.358       .  S
C866        F870   1.358   1_554  S
C873        C874   1.407       .  A
C873        C878   1.404       .  A
C873        F891   1.358       .  S
C874        C879   1.490   1_655  S
C874        C875   1.405       .  A
C875        C876   1.401       .  A
C875        F880   1.358       .  S
C876        C877   1.412       .  A
C876        F892   1.357       .  S
C877        C878   1.412       .  A
C878        F881   1.358       .  S
C879        C882   1.409       .  A
C879        C886   1.407       .  A
C882        C883   1.406       .  A
C882        F887   1.357       .  S
C883        C884   1.406       .  A
C883        F889   1.358       .  S
C884        C885   1.406       .  A
C885        C886   1.399       .  A
C885        F888   1.358       .  S
C886        F890   1.358       .  S
C893        C894   1.406       .  A
C893        C898   1.392   1_655  A
C893        F911   1.359       .  S
C894        C899   1.484       .  S
C894        C895   1.405       .  A
C895        C896   1.403   1_655  A
C895        F900   1.358       .  S
C896        C897   1.414       .  A
C896        F912   1.358       .  S
C897        C898   1.409       .  A
C898        F901   1.358       .  S
C899        C902   1.408       .  A
C899        C906   1.406       .  A
C902        C903   1.401       .  A
C902        F907   1.358       .  S
C903        C904   1.407       .  A
C903        F909   1.358       .  S
C904        C905   1.405       .  A
C905        C906   1.395       .  A
C905        F908   1.358       .  S
C906        F910   1.358       .  S
C913        C914   1.409       .  A
C913        C918   1.396       .  A
C913        F931   1.358   1_556  S
C914        C919   1.484       .  S
C914        C915   1.408       .  A
C915        C916   1.400       .  A
C915        F920   1.358       .  S
C916        C917   1.404       .  A
C916        F932   1.358       .  S
C917        C918   1.400       .  A
C918        F921   1.358       .  S
C919        C922   1.407       .  A
C919        C926   1.405   1_556  A
C922        C923   1.396   1_556  A
C922        F927   1.358       .  S
C923        C924   1.410       .  A
C923        F929   1.358   1_545  S
C924        C925   1.410       .  A
C925        C926   1.399       .  A
C925        F928   1.358       .  S
C926        F930   1.358       .  S
C933        C934   1.400       .  A
C933        C938   1.395       .  A
C933        F951   1.358       .  S
C934        C939   1.485       .  S
C934        C935   1.406       .  A
C935        C936   1.411       .  A
C935        F940   1.357       .  S
C936        C937   1.414       .  A
C936        F952   1.358       .  S
C937        C938   1.412       .  A
C938        F941   1.358       .  S
C939        C942   1.404       .  A
C939        C946   1.404       .  A
C942        C943   1.402       .  A
C942        F947   1.358       .  S
C943        C944   1.411       .  A
C943        F949   1.358       .  S
C944        C945   1.413       .  A
C945        C946   1.405       .  A
C945        F948   1.358       .  S
C946        F950   1.358       .  S
C953        C954   1.402       .  A
C953        C958   1.393       .  A
C953        F971   1.359       .  S
C954        C959   1.480   1_554  S
C954        C955   1.406       .  A
C955        C956   1.405       .  A
C955        F960   1.357   1_554  S
C956        C957   1.410       .  A
C956        F972   1.358       .  S
C957        C958   1.411       .  A
C958        F961   1.358       .  S
C959        C962   1.407       .  A
C959        C966   1.404       .  A
C962        C963   1.402       .  A
C962        F967   1.358       .  S
C963        C964   1.404       .  A
C963        F969   1.358       .  S
C964        C965   1.405       .  A
C965        C966   1.398       .  A
C965        F968   1.358       .  S
C966        F970   1.358       .  S
C973        C974   1.404       .  A
C973        C978   1.401       .  A
C973        F991   1.358       .  S
C974        C979   1.484       .  S
C974        C975   1.403       .  A
C975        C976   1.401       .  A
C975        F980   1.358       .  S
C976        C977   1.413       .  A
C976        F992   1.358       .  S
C977        C978   1.412       .  A
C978        F981   1.358       .  S
C979        C982   1.407       .  A
C979        C986   1.404       .  A
C982        C983   1.406       .  A
C982        F987   1.357       .  S
C983        C984   1.407       .  A
C983        F989   1.358       .  S
C984        C985   1.406       .  A
C985        C986   1.397       .  A
C985        F988   1.358       .  S
C986        F990   1.358       .  S
C993        C994   1.405       .  A
C993        C998   1.403       .  A
C993       F1011   1.358       .  S
C994        C999   1.483   1_556  S
C994        C995   1.406       .  A
C995        C996   1.395   1_455  A
C995       F1000   1.358   1_556  S
C996        C997   1.408       .  A
C996       F1012   1.358       .  S
C997        C998   1.410   1_655  A
C998       F1001   1.358       .  S
C999       C1002   1.408       .  A
C999       C1006   1.406       .  A
C1002      C1003   1.401       .  A
C1002      F1007   1.358   1_554  S
C1003      C1004   1.402       .  A
C1003      F1009   1.358       .  S
C1004      C1005   1.404       .  A
C1005      C1006   1.397       .  A
C1005      F1008   1.359       .  S
C1006      F1010   1.358       .  S
C1013      C1014   1.406       .  A
C1013      C1018   1.398       .  A
C1013      F1031   1.358       .  S
C1014      C1019   1.478       .  S
C1014      C1015   1.406       .  A
C1015      C1016   1.400       .  A
C1015      F1020   1.357       .  S
C1016      C1017   1.404       .  A
C1016      F1032   1.358   1_455  S
C1017      C1018   1.402       .  A
C1018      F1021   1.358       .  S
C1019      C1022   1.402   1_565  A
C1019      C1026   1.402   1_565  A
C1022      C1023   1.401       .  A
C1022      F1027   1.358   1_545  S
C1023      C1024   1.413       .  A
C1023      F1029   1.358       .  S
C1024      C1025   1.413       .  A
C1025      C1026   1.397       .  A
C1025      F1028   1.358       .  S
C1026      F1030   1.358   1_545  S
C1033      C1034   1.402       .  A
C1033      C1038   1.399       .  A
C1033      F1051   1.358       .  S
C1034      C1039   1.490       .  S
C1034      C1035   1.408   1_655  A
C1035      C1036   1.406       .  A
C1035      F1040   1.358       .  S
C1036      C1037   1.411   1_455  A
C1036      F1052   1.357       .  S
C1037      C1038   1.417       .  A
C1038      F1041   1.358       .  S
C1039      C1042   1.406       .  A
C1039      C1046   1.408       .  A
C1042      C1043   1.402       .  A
C1042      F1047   1.358       .  S
C1043      C1044   1.409       .  A
C1043      F1049   1.358       .  S
C1044      C1045   1.407       .  A
C1045      C1046   1.402       .  A
C1045      F1048   1.358       .  S
C1046      F1050   1.358       .  S
C1053      C1054   1.397       .  A
C1053      C1058   1.396       .  A
C1053      F1071   1.358       .  S
C1054      C1059   1.472       .  S
C1054      C1055   1.403       .  A
C1055      C1056   1.401       .  A
C1055      F1060   1.358       .  S
C1056      C1057   1.411       .  A
C1056      F1072   1.358       .  S
C1057      C1058   1.416       .  A
C1058      F1061   1.358       .  S
C1059      C1062   1.404       .  A
C1059      C1066   1.400       .  A
C1062      C1063   1.401       .  A
C1062      F1067   1.358       .  S
C1063      C1064   1.409       .  A
C1063      F1069   1.358       .  S
C1064      C1065   1.408       .  A
C1065      C1066   1.395       .  A
C1065      F1068   1.358       .  S
C1066      F1070   1.358       .  S
C1073      C1074   1.406       .  A
C1073      C1078   1.406       .  A
C1073      F1091   1.357       .  S
C1074      C1079   1.476       .  S
C1074      C1075   1.402       .  A
C1075      C1076   1.393       .  A
C1075      F1080   1.359       .  S
C1076      C1077   1.406       .  A
C1076      F1092   1.359       .  S
C1077      C1078   1.406       .  A
C1078      F1081   1.357       .  S
C1079      C1082   1.403       .  A
C1079      C1086   1.404       .  A
C1082      C1083   1.396       .  A
C1082      F1087   1.358       .  S
C1083      C1084   1.407       .  A
C1083      F1089   1.359       .  S
C1084      C1085   1.407       .  A
C1085      C1086   1.403       .  A
C1085      F1088   1.357       .  S
C1086      F1090   1.357       .  S
C1093      C1094   1.399   1_545  A
C1093      C1098   1.392   1_545  A
C1093      F1111   1.358       .  S
C1094      C1099   1.473       .  S
C1094      C1095   1.406       .  A
C1095      C1096   1.402       .  A
C1095      F1100   1.358       .  S
C1096      C1097   1.407       .  A
C1096      F1112   1.358       .  S
C1097      C1098   1.412       .  A
C1098      F1101   1.358   1_565  S
C1099      C1102   1.400       .  A
C1099      C1106   1.403   1_565  A
C1102      C1103   1.396       .  A
C1102      F1107   1.358       .  S
C1103      C1104   1.414   1_565  A
C1103      F1109   1.358       .  S
C1104      C1105   1.410       .  A
C1105      C1106   1.398       .  A
C1105      F1108   1.358       .  S
C1106      F1110   1.358       .  S
C1113      C1114   1.406       .  A
C1113      C1118   1.392       .  A
C1113      F1131   1.358       .  S
C1114      C1119   1.490       .  S
C1114      C1115   1.413       .  A
C1115      C1116   1.407       .  A
C1115      F1120   1.358       .  S
C1116      C1117   1.405       .  A
C1116      F1132   1.357       .  S
C1117      C1118   1.407       .  A
C1118      F1121   1.359       .  S
C1119      C1122   1.411       .  A
C1119      C1126   1.409       .  A
C1122      C1123   1.401       .  A
C1122      F1127   1.358       .  S
C1123      C1124   1.403       .  A
C1123      F1129   1.358       .  S
C1124      C1125   1.405       .  A
C1125      C1126   1.398       .  A
C1125      F1128   1.358       .  S
C1126      F1130   1.358       .  S
C1133      C1134   1.406       .  A
C1133      C1138   1.398       .  A
C1133      F1151   1.358       .  S
C1134      C1139   1.477       .  S
C1134      C1135   1.401       .  A
C1135      C1136   1.394       .  A
C1135      F1140   1.358       .  S
C1136      C1137   1.412       .  A
C1136      F1152   1.358       .  S
C1137      C1138   1.408       .  A
C1138      F1141   1.358       .  S
C1139      C1142   1.404       .  A
C1139      C1146   1.410       .  A
C1142      C1143   1.396       .  A
C1142      F1147   1.358       .  S
C1143      C1144   1.404       .  A
C1143      F1149   1.358       .  S
C1144      C1145   1.400       .  A
C1145      C1146   1.397       .  A
C1145      F1148   1.358       .  S
C1146      F1150   1.358       .  S
C1153      C1154   1.401   1_545  A
C1153      C1158   1.395       .  A
C1153      F1171   1.358       .  S
C1154      C1159   1.476       .  S
C1154      C1155   1.405       .  A
C1155      C1156   1.400       .  A
C1155      F1160   1.358       .  S
C1156      C1157   1.409       .  A
C1156      F1172   1.358       .  S
C1157      C1158   1.410   1_565  A
C1158      F1161   1.358       .  S
C1159      C1162   1.403   1_565  A
C1159      C1166   1.401       .  A
C1162      C1163   1.399       .  A
C1162      F1167   1.358       .  S
C1163      C1164   1.410       .  A
C1163      F1169   1.358       .  S
C1164      C1165   1.413   1_545  A
C1165      C1166   1.397       .  A
C1165      F1168   1.358       .  S
C1166      F1170   1.358       .  S
C1173      C1174   1.404       .  A
C1173      C1178   1.394       .  A
C1173      F1191   1.358       .  S
C1174      C1179   1.479       .  S
C1174      C1175   1.407       .  A
C1175      C1176   1.400       .  A
C1175      F1180   1.358       .  S
C1176      C1177   1.406       .  A
C1176      F1192   1.357       .  S
C1177      C1178   1.409       .  A
C1178      F1181   1.359       .  S
C1179      C1182   1.405       .  A
C1179      C1186   1.404       .  A
C1182      C1183   1.393       .  A
C1182      F1187   1.358       .  S
C1183      C1184   1.409       .  A
C1183      F1189   1.358   1_565  S
C1184      C1185   1.411       .  A
C1185      C1186   1.400       .  A
C1185      F1188   1.358       .  S
C1186      F1190   1.358       .  S
C1193      C1194   1.405       .  A
C1193      C1198   1.396       .  A
C1193      F1211   1.358       .  S
C1194      C1199   1.482   1_655  S
C1194      C1195   1.404       .  A
C1195      C1196   1.404       .  A
C1195      F1200   1.357       .  S
C1196      C1197   1.411       .  A
C1196      F1212   1.358       .  S
C1197      C1198   1.409       .  A
C1198      F1201   1.358       .  S
C1199      C1202   1.405       .  A
C1199      C1206   1.407       .  A
C1202      C1203   1.394       .  A
C1202      F1207   1.358       .  S
C1203      C1204   1.405       .  A
C1203      F1209   1.358       .  S
C1204      C1205   1.408       .  A
C1205      C1206   1.406       .  A
C1205      F1208   1.358       .  S
C1206      F1210   1.357       .  S
C1213      C1214   1.402       .  A
C1213      C1218   1.400       .  A
C1213      F1231   1.358       .  S
C1214      C1219   1.487       .  S
C1214      C1215   1.405       .  A
C1215      C1216   1.407       .  A
C1215      F1220   1.358       .  S
C1216      C1217   1.413       .  A
C1216      F1232   1.358       .  S
C1217      C1218   1.414       .  A
C1218      F1221   1.358       .  S
C1219      C1222   1.404       .  A
C1219      C1226   1.403       .  A
C1222      C1223   1.403       .  A
C1222      F1227   1.358       .  S
C1223      C1224   1.412       .  A
C1223      F1229   1.357       .  S
C1224      C1225   1.415       .  A
C1225      C1226   1.404       .  A
C1225      F1228   1.358       .  S
C1226      F1230   1.358       .  S
C1233      C1234   1.404       .  A
C1233      C1238   1.404       .  A
C1233      F1251   1.358       .  S
C1234      C1239   1.484       .  S
C1234      C1235   1.405       .  A
C1235      C1236   1.399       .  A
C1235      F1240   1.358       .  S
C1236      C1237   1.411       .  A
C1236      F1252   1.358       .  S
C1237      C1238   1.413       .  A
C1238      F1241   1.358       .  S
C1239      C1242   1.406       .  A
C1239      C1246   1.407       .  A
C1242      C1243   1.398       .  A
C1242      F1247   1.358       .  S
C1243      C1244   1.403       .  A
C1243      F1249   1.358       .  S
C1244      C1245   1.405       .  A
C1245      C1246   1.403       .  A
C1245      F1248   1.358       .  S
C1246      F1250   1.358       .  S
C1253      C1254   1.406       .  A
C1253      C1258   1.403   1_655  A
C1253      F1271   1.358       .  S
C1254      C1259   1.482       .  S
C1254      C1255   1.402       .  A
C1255      C1256   1.398   1_655  A
C1255      F1260   1.358       .  S
C1256      C1257   1.412       .  A
C1256      F1272   1.357       .  S
C1257      C1258   1.410       .  A
C1258      F1261   1.358       .  S
C1259      C1262   1.407       .  A
C1259      C1266   1.405       .  A
C1262      C1263   1.405       .  A
C1262      F1267   1.357       .  S
C1263      C1264   1.407       .  A
C1263      F1269   1.358       .  S
C1264      C1265   1.405       .  A
C1265      C1266   1.395       .  A
C1265      F1268   1.358       .  S
C1266      F1270   1.358       .  S
C1273      C1274   1.403       .  A
C1273      C1278   1.395       .  A
C1273      F1291   1.358       .  S
C1274      C1279   1.478   1_565  S
C1274      C1275   1.406       .  A
C1275      C1276   1.405       .  A
C1275      F1280   1.357       .  S
C1276      C1277   1.406       .  A
C1276      F1292   1.357       .  S
C1277      C1278   1.407       .  A
C1278      F1281   1.358       .  S
C1279      C1282   1.405       .  A
C1279      C1286   1.404       .  A
C1282      C1283   1.406       .  A
C1282      F1287   1.357       .  S
C1283      C1284   1.408       .  A
C1283      F1289   1.358       .  S
C1284      C1285   1.404       .  A
C1285      C1286   1.395       .  A
C1285      F1288   1.358       .  S
C1286      F1290   1.358       .  S
C1293      C1294   1.404   1_455  A
C1293      C1298   1.397       .  A
C1293      F1311   1.358       .  S
C1294      C1299   1.475       .  S
C1294      C1295   1.400       .  A
C1295      C1296   1.396       .  A
C1295      F1300   1.358       .  S
C1296      C1297   1.414   1_655  A
C1296      F1312   1.358       .  S
C1297      C1298   1.410       .  A
C1298      F1301   1.358       .  S
C1299      C1302   1.402       .  A
C1299      C1306   1.405       .  A
C1302      C1303   1.393       .  A
C1302      F1307   1.358   1_655  S
C1303      C1304   1.407       .  A
C1303      F1309   1.358   1_655  S
C1304      C1305   1.408       .  A
C1305      C1306   1.400       .  A
C1305      F1308   1.358       .  S
C1306      F1310   1.358       .  S
C1313      C1314   1.403       .  A
C1313      C1318   1.398       .  A
C1313      F1331   1.358       .  S
C1314      C1319   1.473       .  S
C1314      C1315   1.404       .  A
C1315      C1316   1.393       .  A
C1315      F1320   1.358       .  S
C1316      C1317   1.406       .  A
C1316      F1332   1.359       .  S
C1317      C1318   1.409       .  A
C1318      F1321   1.358       .  S
C1319      C1322   1.404       .  A
C1319      C1326   1.401       .  A
C1322      C1323   1.395   1_545  A
C1322      F1327   1.358   1_545  S
C1323      C1324   1.409       .  A
C1323      F1329   1.358       .  S
C1324      C1325   1.413   1_565  A
C1325      C1326   1.397       .  A
C1325      F1328   1.358       .  S
C1326      F1330   1.358       .  S
C1333      C1334   1.402       .  A
C1333      C1338   1.394       .  A
C1333      F1351   1.358       .  S
C1334      C1339   1.477       .  S
C1334      C1335   1.404       .  A
C1335      C1336   1.404       .  A
C1335      F1340   1.357       .  S
C1336      C1337   1.410       .  A
C1336      F1352   1.357       .  S
C1337      C1338   1.409       .  A
C1338      F1341   1.358   1_455  S
C1339      C1342   1.405       .  A
C1339      C1346   1.404       .  A
C1342      C1343   1.400       .  A
C1342      F1347   1.358       .  S
C1343      C1344   1.403       .  A
C1343      F1349   1.358       .  S
C1344      C1345   1.405       .  A
C1345      C1346   1.401       .  A
C1345      F1348   1.357       .  S
C1346      F1350   1.358       .  S
C1353      C1354   1.405       .  A
C1353      C1358   1.404   1_565  A
C1353      F1371   1.357       .  S
C1354      C1359   1.479       .  S
C1354      C1355   1.404       .  A
C1355      C1356   1.399   1_565  A
C1355      F1360   1.358       .  S
C1356      C1357   1.405       .  A
C1356      F1372   1.356       .  S
C1357      C1358   1.406       .  A
C1358      F1361   1.358       .  S
C1359      C1362   1.405       .  A
C1359      C1366   1.400       .  A
C1362      C1363   1.408       .  A
C1362      F1367   1.357       .  S
C1363      C1364   1.410       .  A
C1363      F1369   1.358       .  S
C1364      C1365   1.411       .  A
C1365      C1366   1.393       .  A
C1365      F1368   1.359       .  S
C1366      F1370   1.359       .  S
C1373      C1374   1.402       .  A
C1373      C1378   1.392       .  A
C1373      F1391   1.359       .  S
C1374      C1379   1.480       .  S
C1374      C1375   1.405       .  A
C1375      C1376   1.406       .  A
C1375      F1380   1.357       .  S
C1376      C1377   1.412       .  A
C1376      F1392   1.358       .  S
C1377      C1378   1.412       .  A
C1378      F1381   1.358       .  S
C1379      C1382   1.406       .  A
C1379      C1386   1.402       .  A
C1382      C1383   1.405       .  A
C1382      F1387   1.358       .  S
C1383      C1384   1.409       .  A
C1383      F1389   1.357       .  S
C1384      C1385   1.409       .  A
C1385      C1386   1.396       .  A
C1385      F1388   1.357   1_455  S
C1386      F1390   1.358       .  S
C1393      C1394   1.407       .  A
C1393      C1398   1.395       .  A
C1393      F1411   1.358       .  S
C1394      C1399   1.485       .  S
C1394      C1395   1.410       .  A
C1395      C1396   1.402       .  A
C1395      F1400   1.358       .  S
C1396      C1397   1.403       .  A
C1396      F1412   1.358       .  S
C1397      C1398   1.403       .  A
C1398      F1401   1.359       .  S
C1399      C1402   1.409       .  A
C1399      C1406   1.409       .  A
C1402      C1403   1.401       .  A
C1402      F1407   1.358       .  S
C1403      C1404   1.403       .  A
C1403      F1409   1.358       .  S
C1404      C1405   1.401       .  A
C1405      C1406   1.397       .  A
C1405      F1408   1.358       .  S
C1406      F1410   1.358       .  S
C1413      C1414   1.401       .  A
C1413      C1418   1.394       .  A
C1413      F1431   1.358       .  S
C1414      C1419   1.478       .  S
C1414      C1415   1.404       .  A
C1415      C1416   1.405       .  A
C1415      F1420   1.357       .  S
C1416      C1417   1.413       .  A
C1416      F1432   1.358       .  S
C1417      C1418   1.413       .  A
C1418      F1421   1.358       .  S
C1419      C1422   1.402       .  A
C1419      C1426   1.405       .  A
C1422      C1423   1.394       .  A
C1422      F1427   1.358       .  S
C1423      C1424   1.407       .  A
C1423      F1429   1.358       .  S
C1424      C1425   1.410       .  A
C1425      C1426   1.406       .  A
C1425      F1428   1.358       .  S
C1426      F1430   1.358       .  S
C1433      C1434   1.405       .  A
C1433      C1438   1.397       .  A
C1433      F1451   1.358       .  S
C1434      C1439   1.480       .  S
C1434      C1435   1.403       .  A
C1435      C1436   1.398       .  A
C1435      F1440   1.358       .  S
C1436      C1437   1.412       .  A
C1436      F1452   1.358       .  S
C1437      C1438   1.410       .  A
C1438      F1441   1.358       .  S
C1439      C1442   1.406       .  A
C1439      C1446   1.405       .  A
C1442      C1443   1.401       .  A
C1442      F1447   1.358       .  S
C1443      C1444   1.408       .  A
C1443      F1449   1.357       .  S
C1444      C1445   1.408       .  A
C1445      C1446   1.395       .  A
C1445      F1448   1.359       .  S
C1446      F1450   1.358       .  S
C1453      C1454   1.402       .  A
C1453      C1458   1.394       .  A
C1453      F1471   1.358       .  S
C1454      C1459   1.469       .  S
C1454      C1455   1.405       .  A
C1455      C1456   1.399       .  A
C1455      F1460   1.358       .  S
C1456      C1457   1.405       .  A
C1456      F1472   1.358       .  S
C1457      C1458   1.405       .  A
C1458      F1461   1.357       .  S
C1459      C1462   1.405       .  A
C1459      C1466   1.400       .  A
C1462      C1463   1.404       .  A
C1462      F1467   1.357   1_554  S
C1463      C1464   1.408       .  A
C1463      F1469   1.358   1_554  S
C1464      C1465   1.407       .  A
C1465      C1466   1.387       .  A
C1465      F1468   1.358       .  S
C1466      F1470   1.359       .  S
C1473      C1474   1.408       .  A
C1473      C1478   1.410       .  A
C1473      F1491   1.357       .  S
C1474      C1479   1.502       .  S
C1474      C1475   1.407       .  A
C1475      C1476   1.409       .  A
C1475      F1480   1.358       .  S
C1476      C1477   1.413       .  A
C1476      F1492   1.358       .  S
C1477      C1478   1.412       .  A
C1478      F1481   1.358       .  S
C1479      C1482   1.411       .  A
C1479      C1486   1.405       .  A
C1482      C1483   1.415       .  A
C1482      F1487   1.357       .  S
C1483      C1484   1.410       .  A
C1483      F1489   1.357       .  S
C1484      C1485   1.412       .  A
C1485      C1486   1.404       .  A
C1485      F1488   1.358       .  S
C1486      F1490   1.358       .  S
C1493      C1494   1.402       .  A
C1493      C1498   1.398       .  A
C1493      F1511   1.358       .  S
C1494      C1499   1.480       .  S
C1494      C1495   1.403       .  A
C1495      C1496   1.403       .  A
C1495      F1500   1.358       .  S
C1496      C1497   1.414       .  A
C1496      F1512   1.358       .  S
C1497      C1498   1.413       .  A
C1498      F1501   1.358       .  S
C1499      C1502   1.406       .  A
C1499      C1506   1.404       .  A
C1502      C1503   1.404       .  A
C1502      F1507   1.358       .  S
C1503      C1504   1.406       .  A
C1503      F1509   1.358       .  S
C1504      C1505   1.404       .  A
C1505      C1506   1.398       .  A
C1505      F1508   1.358       .  S
C1506      F1510   1.358       .  S
C1513      C1514   1.406       .  A
C1513      C1518   1.401       .  A
C1513      F1531   1.358       .  S
C1514      C1519   1.480       .  S
C1514      C1515   1.406       .  A
C1515      C1516   1.399       .  A
C1515      F1520   1.358       .  S
C1516      C1517   1.403       .  A
C1516      F1532   1.358       .  S
C1517      C1518   1.404       .  A
C1518      F1521   1.358       .  S
C1519      C1522   1.404       .  A
C1519      C1526   1.405       .  A
C1522      C1523   1.392       .  A
C1522      F1527   1.359       .  S
C1523      C1524   1.408       .  A
C1523      F1529   1.359       .  S
C1524      C1525   1.410       .  A
C1525      C1526   1.405       .  A
C1525      F1528   1.358       .  S
C1526      F1530   1.357       .  S
C1533      C1534   1.402       .  A
C1533      C1538   1.395       .  A
C1533      F1551   1.358       .  S
C1534      C1539   1.478       .  S
C1534      C1535   1.402       .  A
C1535      C1536   1.403       .  A
C1535      F1540   1.358       .  S
C1536      C1537   1.415       .  A
C1536      F1552   1.358       .  S
C1537      C1538   1.411       .  A
C1538      F1541   1.358       .  S
C1539      C1542   1.405       .  A
C1539      C1546   1.401       .  A
C1542      C1543   1.406       .  A
C1542      F1547   1.357       .  S
C1543      C1544   1.409       .  A
C1543      F1549   1.357       .  S
C1544      C1545   1.410       .  A
C1545      C1546   1.393       .  A
C1545      F1548   1.359       .  S
C1546      F1550   1.359       .  S
C1553      C1554   1.405       .  A
C1553      C1558   1.393       .  A
C1553      F1571   1.358       .  S
C1554      C1559   1.481       .  S
C1554      C1555   1.408       .  A
C1555      C1556   1.402       .  A
C1555      F1560   1.357       .  S
C1556      C1557   1.403       .  A
C1556      F1572   1.357       .  S
C1557      C1558   1.405       .  A
C1558      F1561   1.358       .  S
C1559      C1562   1.404       .  A
C1559      C1566   1.406       .  A
C1562      C1563   1.399       .  A
C1562      F1567   1.358       .  S
C1563      C1564   1.412       .  A
C1563      F1569   1.358       .  S
C1564      C1565   1.407       .  A
C1565      C1566   1.397       .  A
C1565      F1568   1.357       .  S
C1566      F1570   1.358       .  S
C1573      C1574   1.406       .  A
C1573      C1578   1.405       .  A
C1573      F1591   1.357       .  S
C1574      C1579   1.478       .  S
C1574      C1575   1.404       .  A
C1575      C1576   1.393       .  A
C1575      F1580   1.358       .  S
C1576      C1577   1.405       .  A
C1576      F1592   1.359       .  S
C1577      C1578   1.407       .  A
C1578      F1581   1.358       .  S
C1579      C1582   1.404       .  A
C1579      C1586   1.401       .  A
C1582      C1583   1.402       .  A
C1582      F1587   1.358       .  S
C1583      C1584   1.412       .  A
C1583      F1589   1.358       .  S
C1584      C1585   1.413       .  A
C1585      C1586   1.397       .  A
C1585      F1588   1.358       .  S
C1586      F1590   1.358       .  S
C1593      C1594   1.407       .  A
C1593      C1598   1.405       .  A
C1593      F1611   1.358       .  S
C1594      C1599   1.491       .  S
C1594      C1595   1.406       .  A
C1595      C1596   1.402       .  A
C1595      F1600   1.358       .  S
C1596      C1597   1.411       .  A
C1596      F1612   1.358       .  S
C1597      C1598   1.412       .  A
C1598      F1601   1.358       .  S
C1599      C1602   1.406       .  A
C1599      C1606   1.405       .  A
C1602      C1603   1.405       .  A
C1602      F1607   1.358       .  S
C1603      C1604   1.413       .  A
C1603      F1609   1.358       .  S
C1604      C1605   1.413       .  A
C1605      C1606   1.402       .  A
C1605      F1608   1.358       .  S
C1606      F1610   1.358       .  S
C1613      C1614   1.409       .  A
C1613      C1618   1.402       .  A
C1613      F1631   1.358       .  S
C1614      C1619   1.498       .  S
C1614      C1615   1.407       .  A
C1615      C1616   1.407       .  A
C1615      F1620   1.358       .  S
C1616      C1617   1.414       .  A
C1616      F1632   1.357       .  S
C1617      C1618   1.410       .  A
C1618      F1621   1.358       .  S
C1619      C1622   1.406       .  A
C1619      C1626   1.413       .  A
C1622      C1623   1.397       .  A
C1622      F1627   1.358       .  S
C1623      C1624   1.409       .  A
C1623      F1629   1.359       .  S
C1624      C1625   1.407       .  A
C1625      C1626   1.413       .  A
C1625      F1628   1.357       .  S
C1626      F1630   1.357       .  S
C1633      C1634   1.408       .  A
C1633      C1638   1.398       .  A
C1633      F1651   1.358       .  S
C1634      C1639   1.483       .  S
C1634      C1635   1.403       .  A
C1635      C1636   1.397       .  A
C1635      F1640   1.358       .  S
C1636      C1637   1.413       .  A
C1636      F1652   1.358       .  S
C1637      C1638   1.408       .  A
C1638      F1641   1.358       .  S
C1639      C1642   1.407       .  A
C1639      C1646   1.409       .  A
C1642      C1643   1.398       .  A
C1642      F1647   1.358       .  S
C1643      C1644   1.402       .  A
C1643      F1649   1.358       .  S
C1644      C1645   1.401       .  A
C1645      C1646   1.396       .  A
C1645      F1648   1.358       .  S
C1646      F1650   1.358       .  S
C1653      C1654   1.404       .  A
C1653      C1658   1.400       .  A
C1653      F1671   1.358       .  S
C1654      C1659   1.475       .  S
C1654      C1655   1.400       .  A
C1655      C1656   1.396       .  A
C1655      F1660   1.358       .  S
C1656      C1657   1.415       .  A
C1656      F1672   1.358       .  S
C1657      C1658   1.410       .  A
C1658      F1661   1.358       .  S
C1659      C1662   1.402       .  A
C1659      C1666   1.405       .  A
C1662      C1663   1.391       .  A
C1662      F1667   1.359       .  S
C1663      C1664   1.406       .  A
C1663      F1669   1.358       .  S
C1664      C1665   1.406       .  A
C1665      C1666   1.405       .  A
C1665      F1668   1.357       .  S
C1666      F1670   1.357       .  S
C1673      C1674   1.405       .  A
C1673      C1678   1.401       .  A
C1673      F1691   1.358       .  S
C1674      C1679   1.485       .  S
C1674      C1675   1.405       .  A
C1675      C1676   1.402       .  A
C1675      F1680   1.358       .  S
C1676      C1677   1.412       .  A
C1676      F1692   1.358       .  S
C1677      C1678   1.409       .  A
C1678      F1681   1.356       .  S
C1679      C1682   1.404       .  A
C1679      C1686   1.407       .  A
C1682      C1683   1.397       .  A
C1682      F1687   1.358       .  S
C1683      C1684   1.409       .  A
C1683      F1689   1.358       .  S
C1684      C1685   1.408       .  A
C1685      C1686   1.405       .  A
C1685      F1688   1.357       .  S
C1686      F1690   1.357   1_554  S
C1693      C1694   1.404       .  A
C1693      C1698   1.401       .  A
C1693      F1711   1.358       .  S
C1694      C1699   1.474       .  S
C1694      C1695   1.400       .  A
C1695      C1696   1.396       .  A
C1695      F1700   1.358       .  S
C1696      C1697   1.410       .  A
C1696      F1712   1.358       .  S
C1697      C1698   1.410       .  A
C1698      F1701   1.358       .  S
C1699      C1702   1.404       .  A
C1699      C1706   1.400       .  A
C1702      C1703   1.400       .  A
C1702      F1707   1.358       .  S
C1703      C1704   1.409       .  A
C1703      F1709   1.358       .  S
C1704      C1705   1.413       .  A
C1705      C1706   1.396       .  A
C1705      F1708   1.358       .  S
C1706      F1710   1.358       .  S
C1713      C1714   1.405       .  A
C1713      C1718   1.395       .  A
C1713      F1731   1.358       .  S
C1714      C1719   1.480       .  S
C1714      C1715   1.405       .  A
C1715      C1716   1.402       .  A
C1715      F1720   1.358       .  S
C1716      C1717   1.410       .  A
C1716      F1732   1.358       .  S
C1717      C1718   1.405       .  A
C1718      F1721   1.358       .  S
C1719      C1722   1.402       .  A
C1719      C1726   1.404       .  A
C1722      C1723   1.394       .  A
C1722      F1727   1.358       .  S
C1723      C1724   1.412       .  A
C1723      F1729   1.358       .  S
C1724      C1725   1.413       .  A
C1725      C1726   1.403       .  A
C1725      F1728   1.358       .  S
C1726      F1730   1.358       .  S
C1733      C1734   1.399       .  A
C1733      C1738   1.395       .  A
C1733      F1751   1.358       .  S
C1734      C1739   1.476       .  S
C1734      C1735   1.405       .  A
C1735      C1736   1.403       .  A
C1735      F1740   1.358       .  S
C1736      C1737   1.410       .  A
C1736      F1752   1.358       .  S
C1737      C1738   1.414       .  A
C1738      F1741   1.358       .  S
C1739      C1742   1.405       .  A
C1739      C1746   1.400       .  A
C1742      C1743   1.402       .  A
C1742      F1747   1.358       .  S
C1743      C1744   1.409       .  A
C1743      F1749   1.358       .  S
C1744      C1745   1.410       .  A
C1745      C1746   1.396       .  A
C1745      F1748   1.358       .  S
C1746      F1750   1.358       .  S
C1753      C1754   1.410       .  A
C1753      C1758   1.404       .  A
C1753      F1771   1.358       .  S
C1754      C1759   1.488       .  S
C1754      C1755   1.408       .  A
C1755      C1756   1.392       .  A
C1755      F1760   1.358       .  S
C1756      C1757   1.406       .  A
C1756      F1772   1.359       .  S
C1757      C1758   1.407       .  A
C1758      F1761   1.358       .  S
C1759      C1762   1.410       .  A
C1759      C1766   1.409       .  A
C1762      C1763   1.399       .  A
C1762      F1767   1.358       .  S
C1763      C1764   1.403       .  A
C1763      F1769   1.358       .  S
C1764      C1765   1.404       .  A
C1765      C1766   1.399       .  A
C1765      F1768   1.358       .  S
C1766      F1770   1.358       .  S
C1773      C1774   1.409       .  A
C1773      C1778   1.404       .  A
C1773      F1791   1.358       .  S
C1774      C1779   1.486       .  S
C1774      C1775   1.403       .  A
C1775      C1776   1.398       .  A
C1775      F1780   1.358       .  S
C1776      C1777   1.412       .  A
C1776      F1792   1.358       .  S
C1777      C1778   1.407       .  A
C1778      F1781   1.357       .  S
C1779      C1782   1.408       .  A
C1779      C1786   1.402       .  A
C1782      C1783   1.403       .  A
C1782      F1787   1.358       .  S
C1783      C1784   1.411       .  A
C1783      F1789   1.358       .  S
C1784      C1785   1.414       .  A
C1785      C1786   1.397       .  A
C1785      F1788   1.358       .  S
C1786      F1790   1.358       .  S
C1793      C1794   1.407       .  A
C1793      C1798   1.403       .  A
C1793      F1811   1.357       .  S
C1794      C1799   1.478       .  S
C1794      C1795   1.404       .  A
C1795      C1796   1.396       .  A
C1795      F1800   1.358       .  S
C1796      C1797   1.404       .  A
C1796      F1812   1.359       .  S
C1797      C1798   1.404       .  A
C1798      F1801   1.358       .  S
C1799      C1802   1.404       .  A
C1799      C1806   1.406       .  A
C1802      C1803   1.396       .  A
C1802      F1807   1.358       .  S
C1803      C1804   1.402       .  A
C1803      F1809   1.357       .  S
C1804      C1805   1.406       .  A
C1805      C1806   1.404       .  A
C1805      F1808   1.358       .  S
C1806      F1810   1.358       .  S
C1813      C1814   1.403       .  A
C1813      C1818   1.397       .  A
C1813      F1831   1.358       .  S
C1814      C1819   1.482       .  S
C1814      C1815   1.407       .  A
C1815      C1816   1.407       .  A
C1815      F1820   1.357       .  S
C1816      C1817   1.406       .  A
C1816      F1832   1.357       .  S
C1817      C1818   1.408       .  A
C1818      F1821   1.359       .  S
C1819      C1822   1.400       .  A
C1819      C1826   1.406       .  A
C1822      C1823   1.394       .  A
C1822      F1827   1.358       .  S
C1823      C1824   1.413       .  A
C1823      F1829   1.358       .  S
C1824      C1825   1.413       .  A
C1825      C1826   1.410       .  A
C1825      F1828   1.357       .  S
C1826      F1830   1.357       .  S
C1833      C1834   1.410       .  A
C1833      C1838   1.403       .  A
C1833      F1851   1.358       .  S
C1834      C1839   1.483       .  S
C1834      C1835   1.404       .  A
C1835      C1836   1.394       .  A
C1835      F1840   1.358       .  S
C1836      C1837   1.407       .  A
C1836      F1852   1.358       .  S
C1837      C1838   1.404       .  A
C1838      F1841   1.357       .  S
C1839      C1842   1.410       .  A
C1839      C1846   1.404       .  A
C1842      C1843   1.400       .  A
C1842      F1847   1.358       .  S
C1843      C1844   1.402       .  A
C1843      F1849   1.358       .  S
C1844      C1845   1.408       .  A
C1845      C1846   1.396       .  A
C1845      F1848   1.358       .  S
C1846      F1850   1.358       .  S
C1853      C1854   1.402       .  A
C1853      C1858   1.399       .  A
C1853      F1871   1.358       .  S
C1854      C1859   1.479       .  S
C1854      C1855   1.404       .  A
C1855      C1856   1.399       .  A
C1855      F1860   1.358       .  S
C1856      C1857   1.411       .  A
C1856      F1872   1.358       .  S
C1857      C1858   1.413       .  A
C1858      F1861   1.358       .  S
C1859      C1862   1.403       .  A
C1859      C1866   1.406       .  A
C1862      C1863   1.395       .  A
C1862      F1867   1.358       .  S
C1863      C1864   1.408       .  A
C1863      F1869   1.359       .  S
C1864      C1865   1.407       .  A
C1865      C1866   1.403       .  A
C1865      F1868   1.358       .  S
C1866      F1870   1.357       .  S
C1873      C1874   1.406       .  A
C1873      C1878   1.405       .  A
C1873      F1891   1.357       .  S
C1874      C1879   1.481       .  S
C1874      C1875   1.404       .  A
C1875      C1876   1.398       .  A
C1875      F1880   1.358       .  S
C1876      C1877   1.406       .  A
C1876      F1892   1.358       .  S
C1877      C1878   1.407       .  A
C1878      F1881   1.358       .  S
C1879      C1882   1.405       .  A
C1879      C1886   1.404       .  A
C1882      C1883   1.405       .  A
C1882      F1887   1.357       .  S
C1883      C1884   1.409       .  A
C1883      F1889   1.358       .  S
C1884      C1885   1.407       .  A
C1885      C1886   1.397       .  A
C1885      F1888   1.358       .  S
C1886      F1890   1.358       .  S
C1893      C1894   1.403       .  A
C1893      C1898   1.402       .  A
C1893      F1911   1.358       .  S
C1894      C1899   1.477       .  S
C1894      C1895   1.403       .  A
C1895      C1896   1.399       .  A
C1895      F1900   1.358       .  S
C1896      C1897   1.410       .  A
C1896      F1912   1.358       .  S
C1897      C1898   1.411       .  A
C1898      F1901   1.357       .  S
C1899      C1902   1.406       .  A
C1899      C1906   1.402       .  A
C1902      C1903   1.405       .  A
C1902      F1907   1.357       .  S
C1903      C1904   1.407       .  A
C1903      F1909   1.357       .  S
C1904      C1905   1.408       .  A
C1905      C1906   1.394       .  A
C1905      F1908   1.359       .  S
C1906      F1910   1.358       .  S
C1913      C1914   1.404       .  A
C1913      C1918   1.403       .  A
C1913      F1931   1.358       .  S
C1914      C1919   1.490       .  S
C1914      C1915   1.406       .  A
C1915      C1916   1.403       .  A
C1915      F1920   1.358       .  S
C1916      C1917   1.413       .  A
C1916      F1932   1.358       .  S
C1917      C1918   1.413       .  A
C1918      F1921   1.358       .  S
C1919      C1922   1.407       .  A
C1919      C1926   1.403       .  A
C1922      C1923   1.406       .  A
C1922      F1927   1.358       .  S
C1923      C1924   1.412       .  A
C1923      F1929   1.358       .  S
C1924      C1925   1.415       .  A
C1925      C1926   1.400       .  A
C1925      F1928   1.358       .  S
C1926      F1930   1.358       .  S
C1933      C1934   1.403       .  A
C1933      C1938   1.394       .  A
C1933      F1951   1.358       .  S
C1934      C1939   1.479       .  S
C1934      C1935   1.408       .  A
C1935      C1936   1.405       .  A
C1935      F1940   1.358       .  S
C1936      C1937   1.405       .  A
C1936      F1952   1.358       .  S
C1937      C1938   1.405       .  A
C1938      F1941   1.359       .  S
C1939      C1942   1.404       .  A
C1939      C1946   1.407       .  A
C1942      C1943   1.395       .  A
C1942      F1947   1.358       .  S
C1943      C1944   1.407       .  A
C1943      F1949   1.358       .  S
C1944      C1945   1.406       .  A
C1945      C1946   1.403       .  A
C1945      F1948   1.357       .  S
C1946      F1950   1.357       .  S
C1953      C1954   1.403       .  A
C1953      C1958   1.394       .  A
C1953      F1971   1.358       .  S
C1954      C1959   1.476       .  S
C1954      C1955   1.406       .  A
C1955      C1956   1.400       .  A
C1955      F1960   1.358       .  S
C1956      C1957   1.406       .  A
C1956      F1972   1.358       .  S
C1957      C1958   1.406       .  A
C1958      F1961   1.358       .  S
C1959      C1962   1.401       .  A
C1959      C1966   1.404       .  A
C1962      C1963   1.400       .  A
C1962      F1967   1.358       .  S
C1963      C1964   1.413       .  A
C1963      F1969   1.358       .  S
C1964      C1965   1.411       .  A
C1965      C1966   1.394       .  A
C1965      F1968   1.358       .  S
C1966      F1970   1.359       .  S
C1973      C1974   1.405       .  A
C1973      C1978   1.401       .  A
C1973      F1991   1.357       .  S
C1974      C1979   1.479       .  S
C1974      C1975   1.406       .  A
C1975      C1976   1.398       .  A
C1975      F1980   1.358       .  S
C1976      C1977   1.404       .  A
C1976      F1992   1.358       .  S
C1977      C1978   1.405       .  A
C1978      F1981   1.358       .  S
C1979      C1982   1.401       .  A
C1979      C1986   1.404       .  A
C1982      C1983   1.398       .  A
C1982      F1987   1.358       .  S
C1983      C1984   1.414       .  A
C1983      F1989   1.358       .  S
C1984      C1985   1.412       .  A
C1985      C1986   1.401       .  A
C1985      F1988   1.358       .  S
C1986      F1990   1.358       .  S
C1993      C1994   1.402       .  A
C1993      C1998   1.396       .  A
C1993      F2011   1.358       .  S
C1994      C1999   1.480       .  S
C1994      C1995   1.408       .  A
C1995      C1996   1.402       .  A
C1995      F2000   1.358       .  S
C1996      C1997   1.405       .  A
C1996      F2012   1.358       .  S
C1997      C1998   1.410       .  A
C1998      F2001   1.358       .  S
C1999      C2002   1.402       .  A
C1999      C2006   1.405       .  A
C2002      C2003   1.397       .  A
C2002      F2007   1.358       .  S
C2003      C2004   1.411       .  A
C2003      F2009   1.358       .  S
C2004      C2005   1.411       .  A
C2005      C2006   1.402       .  A
C2005      F2008   1.358       .  S
C2006      F2010   1.358       .  S
C2013      C2014   1.404       .  A
C2013      C2018   1.405       .  A
C2013      F2031   1.357       .  S
C2014      C2019   1.480       .  S
C2014      C2015   1.402       .  A
C2015      C2016   1.393       .  A
C2015      F2020   1.359       .  S
C2016      C2017   1.412       .  A
C2016      F2032   1.358       .  S
C2017      C2018   1.412       .  A
C2018      F2021   1.357       .  S
C2019      C2022   1.406       .  A
C2019      C2026   1.403       .  A
C2022      C2023   1.402       .  A
C2022      F2027   1.358       .  S
C2023      C2024   1.407       .  A
C2023      F2029   1.357       .  S
C2024      C2025   1.407       .  A
C2025      C2026   1.396       .  A
C2025      F2028   1.358       .  S
C2026      F2030   1.358       .  S
C2033      C2034   1.406       .  A
C2033      C2038   1.404       .  A
C2033      F2051   1.357       .  S
C2034      C2039   1.477       .  S
C2034      C2035   1.403       .  A
C2035      C2036   1.395       .  A
C2035      F2040   1.358       .  S
C2036      C2037   1.405       .  A
C2036      F2052   1.358       .  S
C2037      C2038   1.405       .  A
C2038      F2041   1.358       .  S
C2039      C2042   1.402       .  A
C2039      C2046   1.402       .  A
C2042      C2043   1.398       .  A
C2042      F2047   1.358       .  S
C2043      C2044   1.413       .  A
C2043      F2049   1.358       .  S
C2044      C2045   1.413       .  A
C2045      C2046   1.401       .  A
C2045      F2048   1.358       .  S
C2046      F2050   1.358       .  S
C2053      C2054   1.408       .  A
C2053      C2058   1.395       .  A
C2053      F2071   1.358       .  S
C2054      C2059   1.485       .  S
C2054      C2055   1.409       .  A
C2055      C2056   1.402       .  A
C2055      F2060   1.358       .  S
C2056      C2057   1.404       .  A
C2056      F2072   1.358       .  S
C2057      C2058   1.401       .  A
C2058      F2061   1.358       .  S
C2059      C2062   1.406       .  A
C2059      C2066   1.405       .  A
C2062      C2063   1.398       .  A
C2062      F2067   1.358       .  S
C2063      C2064   1.413       .  A
C2063      F2069   1.358       .  S
C2064      C2065   1.410       .  A
C2065      C2066   1.399       .  A
C2065      F2068   1.357       .  S
C2066      F2070   1.358       .  S
C2073      C2074   1.399       .  A
C2073      C2078   1.394       .  A
C2073      F2091   1.358       .  S
C2074      C2079   1.470       .  S
C2074      C2075   1.403       .  A
C2075      C2076   1.399       .  A
C2075      F2080   1.358       .  S
C2076      C2077   1.409       .  A
C2076      F2092   1.358       .  S
C2077      C2078   1.412       .  A
C2078      F2081   1.358       .  S
C2079      C2082   1.402       .  A
C2079      C2086   1.403       .  A
C2082      C2083   1.390       .  A
C2082      F2087   1.359       .  S
C2083      C2084   1.405       .  A
C2083      F2089   1.359       .  S
C2084      C2085   1.409       .  A
C2085      C2086   1.402       .  A
C2085      F2088   1.358       .  S
C2086      F2090   1.357       .  S
C2093      C2094   1.402       .  A
C2093      C2098   1.397       .  A
C2093      F2111   1.358       .  S
C2094      C2099   1.481       .  S
C2094      C2095   1.405       .  A
C2095      C2096   1.401       .  A
C2095      F2100   1.358       .  S
C2096      C2097   1.412       .  A
C2096      F2112   1.358       .  S
C2097      C2098   1.413       .  A
C2098      F2101   1.358       .  S
C2099      C2102   1.404       .  A
C2099      C2106   1.405       .  A
C2102      C2103   1.395       .  A
C2102      F2107   1.358       .  S
C2103      C2104   1.409       .  A
C2103      F2109   1.358       .  S
C2104      C2105   1.411       .  A
C2105      C2106   1.403       .  A
C2105      F2108   1.358       .  S
C2106      F2110   1.358       .  S
C2113      C2114   1.402       .  A
C2113      C2118   1.396       .  A
C2113      F2131   1.358       .  S
C2114      C2119   1.475       .  S
C2114      C2115   1.402       .  A
C2115      C2116   1.400       .  A
C2115      F2120   1.358       .  S
C2116      C2117   1.412       .  A
C2116      F2132   1.358       .  S
C2117      C2118   1.412       .  A
C2118      F2121   1.358       .  S
C2119      C2122   1.402       .  A
C2119      C2126   1.403       .  A
C2122      C2123   1.398       .  A
C2122      F2127   1.358       .  S
C2123      C2124   1.412       .  A
C2123      F2129   1.358       .  S
C2124      C2125   1.410       .  A
C2125      C2126   1.399       .  A
C2125      F2128   1.357       .  S
C2126      F2130   1.358       .  S
C2133      C2134   1.405       .  A
C2133      C2138   1.396       .  A
C2133      F2151   1.358       .  S
C2134      C2139   1.487       .  S
C2134      C2135   1.405       .  A
C2135      C2136   1.405       .  A
C2135      F2140   1.358       .  S
C2136      C2137   1.413       .  A
C2136      F2152   1.358       .  S
C2137      C2138   1.411       .  A
C2138      F2141   1.358       .  S
C2139      C2142   1.407       .  A
C2139      C2146   1.408       .  A
C2142      C2143   1.399       .  A
C2142      F2147   1.358       .  S
C2143      C2144   1.402       .  A
C2143      F2149   1.357       .  S
C2144      C2145   1.404       .  A
C2145      C2146   1.402       .  A
C2145      F2148   1.358       .  S
C2146      F2150   1.358       .  S
C2153      C2154   1.405   1_455  A
C2153      C2158   1.399       .  A
C2153      F2171   1.358   1_455  S
C2154      C2159   1.483       .  S
C2154      C2155   1.405   1_655  A
C2155      C2156   1.400       .  A
C2155      F2160   1.358       .  S
C2156      C2157   1.410       .  A
C2156      F2172   1.358       .  S
C2157      C2158   1.410       .  A
C2158      F2161   1.358       .  S
C2159      C2162   1.405       .  A
C2159      C2166   1.404       .  A
C2162      C2163   1.399       .  A
C2162      F2167   1.358       .  S
C2163      C2164   1.411       .  A
C2163      F2169   1.358       .  S
C2164      C2165   1.413       .  A
C2165      C2166   1.400       .  A
C2165      F2168   1.358       .  S
C2166      F2170   1.358       .  S
C2173      C2174   1.403       .  A
C2173      C2178   1.400       .  A
C2173      F2191   1.358       .  S
C2174      C2179   1.475       .  S
C2174      C2175   1.400       .  A
C2175      C2176   1.397       .  A
C2175      F2180   1.358       .  S
C2176      C2177   1.413       .  A
C2176      F2192   1.357       .  S
C2177      C2178   1.412       .  A
C2178      F2181   1.358       .  S
C2179      C2182   1.405       .  A
C2179      C2186   1.403       .  A
C2182      C2183   1.403       .  A
C2182      F2187   1.357   1_556  S
C2183      C2184   1.406       .  A
C2183      F2189   1.358   1_556  S
C2184      C2185   1.403       .  A
C2185      C2186   1.393       .  A
C2185      F2188   1.359       .  S
C2186      F2190   1.358       .  S
C2193      C2194   1.407       .  A
C2193      C2198   1.398       .  A
C2193      F2211   1.358       .  S
C2194      C2199   1.482       .  S
C2194      C2195   1.408       .  A
C2195      C2196   1.398       .  A
C2195      F2200   1.358       .  S
C2196      C2197   1.402       .  A
C2196      F2212   1.358       .  S
C2197      C2198   1.403       .  A
C2198      F2201   1.358       .  S
C2199      C2202   1.404       .  A
C2199      C2206   1.406       .  A
C2202      C2203   1.401       .  A
C2202      F2207   1.358       .  S
C2203      C2204   1.412       .  A
C2203      F2209   1.358       .  S
C2204      C2205   1.408       .  A
C2205      C2206   1.395       .  A
C2205      F2208   1.358       .  S
C2206      F2210   1.358       .  S
C2213      C2214   1.405       .  A
C2213      C2218   1.405       .  A
C2213      F2231   1.358       .  S
C2214      C2219   1.489       .  S
C2214      C2215   1.404       .  A
C2215      C2216   1.400       .  A
C2215      F2220   1.358       .  S
C2216      C2217   1.413       .  A
C2216      F2232   1.358       .  S
C2217      C2218   1.414       .  A
C2218      F2221   1.358       .  S
C2219      C2222   1.407       .  A
C2219      C2226   1.406       .  A
C2222      C2223   1.404       .  A
C2222      F2227   1.358       .  S
C2223      C2224   1.410       .  A
C2223      F2229   1.358       .  S
C2224      C2225   1.408       .  A
C2225      C2226   1.401       .  A
C2225      F2228   1.358       .  S
C2226      F2230   1.358       .  S
C2233      C2234   1.403       .  A
C2233      C2238   1.395       .  A
C2233      F2251   1.358       .  S
C2234      C2239   1.473       .  S
C2234      C2235   1.405       .  A
C2235      C2236   1.402       .  A
C2235      F2240   1.357       .  S
C2236      C2237   1.405       .  A
C2236      F2252   1.358       .  S
C2237      C2238   1.403       .  A
C2238      F2241   1.357       .  S
C2239      C2242   1.401       .  A
C2239      C2246   1.403       .  A
C2242      C2243   1.391       .  A
C2242      F2247   1.359       .  S
C2243      C2244   1.407       .  A
C2243      F2249   1.358       .  S
C2244      C2245   1.411       .  A
C2245      C2246   1.405       .  A
C2245      F2248   1.358       .  S
C2246      F2250   1.357       .  S
C2253      C2254   1.405       .  A
C2253      C2258   1.400       .  A
C2253      F2271   1.358       .  S
C2254      C2259   1.486       .  S
C2254      C2255   1.406       .  A
C2255      C2256   1.399       .  A
C2255      F2260   1.358       .  S
C2256      C2257   1.411       .  A
C2256      F2272   1.358       .  S
C2257      C2258   1.413       .  A
C2258      F2261   1.358       .  S
C2259      C2262   1.407       .  A
C2259      C2266   1.407       .  A
C2262      C2263   1.397       .  A
C2262      F2267   1.358       .  S
C2263      C2264   1.407       .  A
C2263      F2269   1.358       .  S
C2264      C2265   1.409       .  A
C2265      C2266   1.402       .  A
C2265      F2268   1.358       .  S
C2266      F2270   1.358       .  S
C2273      C2274   1.404       .  A
C2273      C2278   1.394       .  A
C2273      F2291   1.359       .  S
C2274      C2279   1.490   1_545  S
C2274      C2275   1.410       .  A
C2275      C2276   1.409       .  A
C2275      F2280   1.357       .  S
C2276      C2277   1.408       .  A
C2276      F2292   1.357       .  S
C2277      C2278   1.409       .  A
C2278      F2281   1.359       .  S
C2279      C2282   1.408       .  A
C2279      C2286   1.407       .  A
C2282      C2283   1.397       .  A
C2282      F2287   1.358       .  S
C2283      C2284   1.407       .  A
C2283      F2289   1.358       .  S
C2284      C2285   1.410       .  A
C2285      C2286   1.406       .  A
C2285      F2288   1.358       .  S
C2286      F2290   1.357       .  S
C2293      C2294   1.407       .  A
C2293      C2298   1.398       .  A
C2293      F2311   1.358       .  S
C2294      C2299   1.486       .  S
C2294      C2295   1.403       .  A
C2295      C2296   1.401       .  A
C2295      F2300   1.358       .  S
C2296      C2297   1.415       .  A
C2296      F2312   1.358       .  S
C2297      C2298   1.410       .  A
C2298      F2301   1.358       .  S
C2299      C2302   1.409       .  A
C2299      C2306   1.404       .  A
C2302      C2303   1.403       .  A
C2302      F2307   1.358       .  S
C2303      C2304   1.405       .  A
C2303      F2309   1.358       .  S
C2304      C2305   1.408       .  A
C2305      C2306   1.397       .  A
C2305      F2308   1.357       .  S
C2306      F2310   1.358       .  S
C2313      C2314   1.408       .  A
C2313      C2318   1.397       .  A
C2313      F2331   1.358       .  S
C2314      C2319   1.482       .  S
C2314      C2315   1.405       .  A
C2315      C2316   1.399       .  A
C2315      F2320   1.358       .  S
C2316      C2317   1.409       .  A
C2316      F2332   1.358       .  S
C2317      C2318   1.403       .  A
C2318      F2321   1.357       .  S
C2319      C2322   1.403       .  A
C2319      C2326   1.409       .  A
C2322      C2323   1.387       .  A
C2322      F2327   1.359       .  S
C2323      C2324   1.409       .  A
C2323      F2329   1.359       .  S
C2324      C2325   1.409       .  A
C2325      C2326   1.408       .  A
C2325      F2328   1.358       .  S
C2326      F2330   1.358       .  S
C2333      C2334   1.404       .  A
C2333      C2338   1.395       .  A
C2333      F2351   1.358       .  S
C2334      C2339   1.484       .  S
C2334      C2335   1.408       .  A
C2335      C2336   1.407       .  A
C2335      F2340   1.357       .  S
C2336      C2337   1.408       .  A
C2336      F2352   1.358       .  S
C2337      C2338   1.407       .  A
C2338      F2341   1.358       .  S
C2339      C2342   1.405       .  A
C2339      C2346   1.404       .  A
C2342      C2343   1.403       .  A
C2342      F2347   1.358       .  S
C2343      C2344   1.410       .  A
C2343      F2349   1.358       .  S
C2344      C2345   1.412       .  A
C2345      C2346   1.400       .  A
C2345      F2348   1.357       .  S
C2346      F2350   1.358       .  S
C2353      C2354   1.405       .  A
C2353      C2358   1.405       .  A
C2353      F2371   1.358       .  S
C2354      C2359   1.483       .  S
C2354      C2355   1.403       .  A
C2355      C2356   1.400       .  A
C2355      F2360   1.358       .  S
C2356      C2357   1.410       .  A
C2356      F2372   1.358       .  S
C2357      C2358   1.410       .  A
C2358      F2361   1.358       .  S
C2359      C2362   1.403       .  A
C2359      C2366   1.402       .  A
C2362      C2363   1.403       .  A
C2362      F2367   1.358       .  S
C2363      C2364   1.413       .  A
C2363      F2369   1.358       .  S
C2364      C2365   1.415       .  A
C2365      C2366   1.400       .  A
C2365      F2368   1.358       .  S
C2366      F2370   1.358       .  S
C2373      C2374   1.404       .  A
C2373      C2378   1.399       .  A
C2373      F2391   1.358       .  S
C2374      C2379   1.482       .  S
C2374      C2375   1.407       .  A
C2375      C2376   1.406       .  A
C2375      F2380   1.358       .  S
C2376      C2377   1.406       .  A
C2376      F2392   1.358       .  S
C2377      C2378   1.405       .  A
C2378      F2381   1.358       .  S
C2379      C2382   1.404       .  A
C2379      C2386   1.400       .  A
C2382      C2383   1.409       .  A
C2382      F2387   1.357       .  S
C2383      C2384   1.414       .  A
C2383      F2389   1.357       .  S
C2384      C2385   1.415       .  A
C2385      C2386   1.395       .  A
C2385      F2388   1.358       .  S
C2386      F2390   1.359       .  S
C2393      C2394   1.404       .  A
C2393      C2398   1.401       .  A
C2393      F2411   1.358       .  S
C2394      C2399   1.480       .  S
C2394      C2395   1.404       .  A
C2395      C2396   1.396       .  A
C2395      F2400   1.358       .  S
C2396      C2397   1.411       .  A
C2396      F2412   1.358       .  S
C2397      C2398   1.411       .  A
C2398      F2401   1.358       .  S
C2399      C2402   1.405       .  A
C2399      C2406   1.406       .  A
C2402      C2403   1.397       .  A
C2402      F2407   1.358       .  S
C2403      C2404   1.402       .  A
C2403      F2409   1.358       .  S
C2404      C2405   1.405       .  A
C2405      C2406   1.402       .  A
C2405      F2408   1.358       .  S
C2406      F2410   1.358       .  S
C2413      C2414   1.402       .  A
C2413      C2418   1.401       .  A
C2413      F2431   1.358       .  S
C2414      C2419   1.479       .  S
C2414      C2415   1.402       .  A
C2415      C2416   1.400       .  A
C2415      F2420   1.358       .  S
C2416      C2417   1.413       .  A
C2416      F2432   1.358       .  S
C2417      C2418   1.413       .  A
C2418      F2421   1.358       .  S
C2419      C2422   1.403       .  A
C2419      C2426   1.406       .  A
C2422      C2423   1.396       .  A
C2422      F2427   1.358       .  S
C2423      C2424   1.405       .  A
C2423      F2429   1.358       .  S
C2424      C2425   1.407       .  A
C2425      C2426   1.405       .  A
C2425      F2428   1.358       .  S
C2426      F2430   1.358   1_556  S
C2433      C2434   1.402       .  A
C2433      C2438   1.396       .  A
C2433      F2451   1.358       .  S
C2434      C2439   1.481       .  S
C2434      C2435   1.406       .  A
C2435      C2436   1.408       .  A
C2435      F2440   1.357   1_556  S
C2436      C2437   1.410       .  A
C2436      F2452   1.358   1_556  S
C2437      C2438   1.408       .  A
C2438      F2441   1.358       .  S
C2439      C2442   1.402       .  A
C2439      C2446   1.403       .  A
C2442      C2443   1.402       .  A
C2442      F2447   1.358       .  S
C2443      C2444   1.415       .  A
C2443      F2449   1.358       .  S
C2444      C2445   1.413       .  A
C2445      C2446   1.401       .  A
C2445      F2448   1.358       .  S
C2446      F2450   1.358       .  S
C2453      C2454   1.408       .  A
C2453      C2458   1.408       .  A
C2453      F2471   1.357       .  S
C2454      C2459   1.493       .  S
C2454      C2455   1.406       .  A
C2455      C2456   1.399       .  A
C2455      F2460   1.358       .  S
C2456      C2457   1.410       .  A
C2456      F2472   1.358       .  S
C2457      C2458   1.412       .  A
C2458      F2461   1.358       .  S
C2459      C2462   1.405       .  A
C2459      C2466   1.406       .  A
C2462      C2463   1.400       .  A
C2462      F2467   1.358       .  S
C2463      C2464   1.412       .  A
C2463      F2469   1.358       .  S
C2464      C2465   1.415       .  A
C2465      C2466   1.408       .  A
C2465      F2468   1.358       .  S
C2466      F2470   1.358       .  S
C2473      C2474   1.401       .  A
C2473      C2478   1.396       .  A
C2473      F2491   1.358       .  S
C2474      C2479   1.476       .  S
C2474      C2475   1.406       .  A
C2475      C2476   1.403       .  A
C2475      F2480   1.358       .  S
C2476      C2477   1.407       .  A
C2476      F2492   1.358       .  S
C2477      C2478   1.408       .  A
C2478      F2481   1.358       .  S
C2479      C2482   1.403       .  A
C2479      C2486   1.403       .  A
C2482      C2483   1.400       .  A
C2482      F2487   1.358       .  S
C2483      C2484   1.410       .  A
C2483      F2489   1.358       .  S
C2484      C2485   1.408       .  A
C2485      C2486   1.399       .  A
C2485      F2488   1.358       .  S
C2486      F2490   1.358       .  S
C2493      C2494   1.405       .  A
C2493      C2498   1.404       .  A
C2493      F2511   1.357       .  S
C2494      C2499   1.474   1_655  S
C2494      C2495   1.401       .  A
C2495      C2496   1.394       .  A
C2495      F2500   1.358       .  S
C2496      C2497   1.408       .  A
C2496      F2512   1.359       .  S
C2497      C2498   1.407       .  A
C2498      F2501   1.357       .  S
C2499      C2502   1.401       .  A
C2499      C2506   1.401       .  A
C2502      C2503   1.396       .  A
C2502      F2507   1.358   1_455  S
C2503      C2504   1.412       .  A
C2503      F2509   1.358       .  S
C2504      C2505   1.414       .  A
C2505      C2506   1.401       .  A
C2505      F2508   1.358       .  S
C2506      F2510   1.358       .  S
C2513      C2514   1.404       .  A
C2513      C2518   1.399       .  A
C2513      F2531   1.358       .  S
C2514      C2519   1.483       .  S
C2514      C2515   1.407       .  A
C2515      C2516   1.400       .  A
C2515      F2520   1.358       .  S
C2516      C2517   1.406       .  A
C2516      F2532   1.358       .  S
C2517      C2518   1.410       .  A
C2518      F2521   1.358       .  S
C2519      C2522   1.406       .  A
C2519      C2526   1.404       .  A
C2522      C2523   1.401       .  A
C2522      F2527   1.358       .  S
C2523      C2524   1.408       .  A
C2523      F2529   1.358       .  S
C2524      C2525   1.409       .  A
C2525      C2526   1.399       .  A
C2525      F2528   1.358       .  S
C2526      F2530   1.358       .  S
C2533      C2534   1.401       .  A
C2533      C2538   1.397       .  A
C2533      F2551   1.358       .  S
C2534      C2539   1.478       .  S
C2534      C2535   1.404       .  A
C2535      C2536   1.404       .  A
C2535      F2540   1.357       .  S
C2536      C2537   1.409       .  A
C2536      F2552   1.357       .  S
C2537      C2538   1.412       .  A
C2538      F2541   1.358       .  S
C2539      C2542   1.404       .  A
C2539      C2546   1.402       .  A
C2542      C2543   1.401       .  A
C2542      F2547   1.358       .  S
C2543      C2544   1.408       .  A
C2543      F2549   1.358       .  S
C2544      C2545   1.412       .  A
C2545      C2546   1.399       .  A
C2545      F2548   1.358       .  S
C2546      F2550   1.358       .  S
C2553      C2554   1.403       .  A
C2553      C2558   1.399       .  A
C2553      F2571   1.358       .  S
C2554      C2559   1.488       .  S
C2554      C2555   1.407       .  A
C2555      C2556   1.408       .  A
C2555      F2560   1.358       .  S
C2556      C2557   1.412       .  A
C2556      F2572   1.358       .  S
C2557      C2558   1.413       .  A
C2558      F2561   1.358       .  S
C2559      C2562   1.402       .  A
C2559      C2566   1.407       .  A
C2562      C2563   1.398       .  A
C2562      F2567   1.358       .  S
C2563      C2564   1.414       .  A
C2563      F2569   1.358       .  S
C2564      C2565   1.413       .  A
C2565      C2566   1.408       .  A
C2565      F2568   1.358       .  S
C2566      F2570   1.358       .  S
C2573      C2574   1.406       .  A
C2573      C2578   1.399       .  A
C2573      F2591   1.358       .  S
C2574      C2579   1.482       .  S
C2574      C2575   1.402       .  A
C2575      C2576   1.397       .  A
C2575      F2580   1.358       .  S
C2576      C2577   1.414       .  A
C2576      F2592   1.358       .  S
C2577      C2578   1.411       .  A
C2578      F2581   1.358       .  S
C2579      C2582   1.405       .  A
C2579      C2586   1.408       .  A
C2582      C2583   1.398       .  A
C2582      F2587   1.358       .  S
C2583      C2584   1.408       .  A
C2583      F2589   1.358       .  S
C2584      C2585   1.404       .  A
C2585      C2586   1.398       .  A
C2585      F2588   1.357       .  S
C2586      F2590   1.358       .  S
C2593      C2594   1.403       .  A
C2593      C2598   1.397       .  A
C2593      F2611   1.358       .  S
C2594      C2599   1.481       .  S
C2594      C2595   1.404       .  A
C2595      C2596   1.402       .  A
C2595      F2600   1.358       .  S
C2596      C2597   1.413       .  A
C2596      F2612   1.358       .  S
C2597      C2598   1.412       .  A
C2598      F2601   1.358       .  S
C2599      C2602   1.405       .  A
C2599      C2606   1.403       .  A
C2602      C2603   1.403       .  A
C2602      F2607   1.358       .  S
C2603      C2604   1.412       .  A
C2603      F2609   1.358       .  S
C2604      C2605   1.411       .  A
C2605      C2606   1.395       .  A
C2605      F2608   1.358       .  S
C2606      F2610   1.358       .  S
C2613      C2614   1.403       .  A
C2613      C2618   1.402       .  A
C2613      F2631   1.358       .  S
C2614      C2619   1.488       .  S
C2614      C2615   1.405       .  A
C2615      C2616   1.405       .  A
C2615      F2620   1.357       .  S
C2616      C2617   1.412       .  A
C2616      F2632   1.357       .  S
C2617      C2618   1.416       .  A
C2618      F2621   1.358       .  S
C2619      C2622   1.406       .  A
C2619      C2626   1.405       .  A
C2622      C2623   1.404       .  A
C2622      F2627   1.358       .  S
C2623      C2624   1.410       .  A
C2623      F2629   1.358       .  S
C2624      C2625   1.410       .  A
C2625      C2626   1.401       .  A
C2625      F2628   1.358       .  S
C2626      F2630   1.358       .  S
C2633      C2634   1.407       .  A
C2633      C2638   1.400       .  A
C2633      F2651   1.358       .  S
C2634      C2639   1.491       .  S
C2634      C2635   1.406       .  A
C2635      C2636   1.403       .  A
C2635      F2640   1.358       .  S
C2636      C2637   1.412       .  A
C2636      F2652   1.358       .  S
C2637      C2638   1.409       .  A
C2638      F2641   1.358       .  S
C2639      C2642   1.405       .  A
C2639      C2646   1.407       .  A
C2642      C2643   1.398       .  A
C2642      F2647   1.358       .  S
C2643      C2644   1.413       .  A
C2643      F2649   1.358       .  S
C2644      C2645   1.413       .  A
C2645      C2646   1.405       .  A
C2645      F2648   1.358       .  S
C2646      F2650   1.358       .  S
C2653      C2654   1.400       .  A
C2653      C2658   1.395       .  A
C2653      F2671   1.358       .  S
C2654      C2659   1.471       .  S
C2654      C2655   1.402       .  A
C2655      C2656   1.398       .  A
C2655      F2660   1.358       .  S
C2656      C2657   1.410       .  A
C2656      F2672   1.358       .  S
C2657      C2658   1.413       .  A
C2658      F2661   1.358       .  S
C2659      C2662   1.402       .  A
C2659      C2666   1.399       .  A
C2662      C2663   1.400       .  A
C2662      F2667   1.358       .  S
C2663      C2664   1.411       .  A
C2663      F2669   1.358       .  S
C2664      C2665   1.414       .  A
C2665      C2666   1.394       .  A
C2665      F2668   1.358       .  S
C2666      F2670   1.358       .  S
C2673      C2674   1.403       .  A
C2673      C2678   1.397       .  A
C2673      F2691   1.358       .  S
C2674      C2679   1.476       .  S
C2674      C2675   1.405       .  A
C2675      C2676   1.402       .  A
C2675      F2680   1.357       .  S
C2676      C2677   1.406       .  A
C2676      F2692   1.358       .  S
C2677      C2678   1.408       .  A
C2678      F2681   1.359       .  S
C2679      C2682   1.402       .  A
C2679      C2686   1.406       .  A
C2682      C2683   1.394       .  A
C2682      F2687   1.358       .  S
C2683      C2684   1.407       .  A
C2683      F2689   1.358       .  S
C2684      C2685   1.408       .  A
C2685      C2686   1.405       .  A
C2685      F2688   1.358       .  S
C2686      F2690   1.357       .  S
C2693      C2694   1.407       .  A
C2693      C2698   1.401       .  A
C2693      F2711   1.358       .  S
C2694      C2699   1.484       .  S
C2694      C2695   1.406       .  A
C2695      C2696   1.400       .  A
C2695      F2700   1.358       .  S
C2696      C2697   1.403       .  A
C2696      F2712   1.358       .  S
C2697      C2698   1.405       .  A
C2698      F2701   1.358       .  S
C2699      C2702   1.406       .  A
C2699      C2706   1.403       .  A
C2702      C2703   1.398       .  A
C2702      F2707   1.358       .  S
C2703      C2704   1.409       .  A
C2703      F2709   1.358       .  S
C2704      C2705   1.414       .  A
C2705      C2706   1.401       .  A
C2705      F2708   1.358       .  S
C2706      F2710   1.358       .  S
C2713      C2714   1.405       .  A
C2713      C2718   1.392       .  A
C2713      F2731   1.358       .  S
C2714      C2719   1.483       .  S
C2714      C2715   1.410       .  A
C2715      C2716   1.405       .  A
C2715      F2720   1.358       .  S
C2716      C2717   1.407       .  A
C2716      F2732   1.358       .  S
C2717      C2718   1.406       .  A
C2718      F2721   1.359       .  S
C2719      C2722   1.410       .  A
C2719      C2726   1.405       .  A
C2722      C2723   1.402       .  A
C2722      F2727   1.358       .  S
C2723      C2724   1.402       .  A
C2723      F2729   1.357       .  S
C2724      C2725   1.402       .  A
C2725      C2726   1.395       .  A
C2725      F2728   1.355       .  S
C2726      F2730   1.358       .  S
C2733      C2734   1.404       .  A
C2733      C2738   1.403       .  A
C2733      F2751   1.358       .  S
C2734      C2739   1.475       .  S
C2734      C2735   1.398       .  A
C2735      C2736   1.394       .  A
C2735      F2740   1.358       .  S
C2736      C2737   1.414       .  A
C2736      F2752   1.358       .  S
C2737      C2738   1.411       .  A
C2738      F2741   1.357       .  S
C2739      C2742   1.400       .  A
C2739      C2746   1.402       .  A
C2742      C2743   1.397       .  A
C2742      F2747   1.358       .  S
C2743      C2744   1.413       .  A
C2743      F2749   1.358       .  S
C2744      C2745   1.412       .  A
C2745      C2746   1.400       .  A
C2745      F2748   1.358       .  S
C2746      F2750   1.358       .  S
C2753      C2754   1.404       .  A
C2753      C2758   1.395       .  A
C2753      F2771   1.358       .  S
C2754      C2759   1.484       .  S
C2754      C2755   1.406       .  A
C2755      C2756   1.401       .  A
C2755      F2760   1.358       .  S
C2756      C2757   1.412       .  A
C2756      F2772   1.358       .  S
C2757      C2758   1.411       .  A
C2758      F2761   1.357       .  S
C2759      C2762   1.406       .  A
C2759      C2766   1.407       .  A
C2762      C2763   1.396       .  A
C2762      F2767   1.358       .  S
C2763      C2764   1.409       .  A
C2763      F2769   1.359       .  S
C2764      C2765   1.407       .  A
C2765      C2766   1.400       .  A
C2765      F2768   1.358       .  S
C2766      F2770   1.358       .  S
C2773      C2774   1.408       .  A
C2773      C2778   1.400       .  A
C2773      F2791   1.358       .  S
C2774      C2779   1.483       .  S
C2774      C2775   1.404       .  A
C2775      C2776   1.400       .  A
C2775      F2780   1.358       .  S
C2776      C2777   1.408       .  A
C2776      F2792   1.357       .  S
C2777      C2778   1.405       .  A
C2778      F2781   1.358       .  S
C2779      C2782   1.402       .  A
C2779      C2786   1.408       .  A
C2782      C2783   1.392       .  A
C2782      F2787   1.359       .  S
C2783      C2784   1.411       .  A
C2783      F2789   1.358       .  S
C2784      C2785   1.410       .  A
C2785      C2786   1.408       .  A
C2785      F2788   1.357       .  S
C2786      F2790   1.357       .  S
C2793      C2794   1.407       .  A
C2793      C2798   1.405       .  A
C2793      F2811   1.358       .  S
C2794      C2799   1.484       .  S
C2794      C2795   1.406       .  A
C2795      C2796   1.398       .  A
C2795      F2800   1.358       .  S
C2796      C2797   1.404       .  A
C2796      F2812   1.358       .  S
C2797      C2798   1.407       .  A
C2798      F2801   1.358       .  S
C2799      C2802   1.404       .  A
C2799      C2806   1.402       .  A
C2802      C2803   1.402       .  A
C2802      F2807   1.358       .  S
C2803      C2804   1.412       .  A
C2803      F2809   1.357       .  S
C2804      C2805   1.415       .  A
C2805      C2806   1.400       .  A
C2805      F2808   1.356       .  S
C2806      F2810   1.358       .  S
C2813      C2814   1.406       .  A
C2813      C2818   1.401       .  A
C2813      F2831   1.358       .  S
C2814      C2819   1.490       .  S
C2814      C2815   1.409       .  A
C2815      C2816   1.407       .  A
C2815      F2820   1.357       .  S
C2816      C2817   1.407       .  A
C2816      F2832   1.358       .  S
C2817      C2818   1.406       .  A
C2818      F2821   1.358       .  S
C2819      C2822   1.404       .  A
C2819      C2826   1.406       .  A
C2822      C2823   1.403       .  A
C2822      F2827   1.358       .  S
C2823      C2824   1.414       .  A
C2823      F2829   1.358       .  S
C2824      C2825   1.412       .  A
C2825      C2826   1.406       .  A
C2825      F2828   1.357       .  S
C2826      F2830   1.358       .  S
C2833      C2834   1.400       .  A
C2833      C2838   1.397       .  A
C2833      F2851   1.358       .  S
C2834      C2839   1.477       .  S
C2834      C2835   1.403       .  A
C2835      C2836   1.401       .  A
C2835      F2840   1.358       .  S
C2836      C2837   1.411       .  A
C2836      F2852   1.358       .  S
C2837      C2838   1.415       .  A
C2838      F2841   1.358       .  S
C2839      C2842   1.402       .  A
C2839      C2846   1.403       .  A
C2842      C2843   1.398       .  A
C2842      F2847   1.358       .  S
C2843      C2844   1.411       .  A
C2843      F2849   1.358       .  S
C2844      C2845   1.410       .  A
C2845      C2846   1.400       .  A
C2845      F2848   1.358       .  S
C2846      F2850   1.358       .  S
C2853      C2854   1.407       .  A
C2853      C2858   1.406       .  A
C2853      F2871   1.358       .  S
C2854      C2859   1.491       .  S
C2854      C2855   1.404       .  A
C2855      C2856   1.401       .  A
C2855      F2860   1.358       .  S
C2856      C2857   1.414       .  A
C2856      F2872   1.358       .  S
C2857      C2858   1.411       .  A
C2858      F2861   1.358       .  S
C2859      C2862   1.408       .  A
C2859      C2866   1.406       .  A
C2862      C2863   1.408       .  A
C2862      F2867   1.357       .  S
C2863      C2864   1.408       .  A
C2863      F2869   1.358       .  S
C2864      C2865   1.408       .  A
C2865      C2866   1.399       .  A
C2865      F2868   1.358       .  S
C2866      F2870   1.358       .  S
C2873      C2874   1.401       .  A
C2873      C2878   1.400       .  A
C2873      F2891   1.358       .  S
C2874      C2879   1.475       .  S
C2874      C2875   1.403       .  A
C2875      C2876   1.397       .  A
C2875      F2880   1.358       .  S
C2876      C2877   1.410       .  A
C2876      F2892   1.358       .  S
C2877      C2878   1.412       .  A
C2878      F2881   1.358       .  S
C2879      C2882   1.404       .  A
C2879      C2886   1.405       .  A
C2882      C2883   1.396       .  A
C2882      F2887   1.358       .  S
C2883      C2884   1.402       .  A
C2883      F2889   1.357       .  S
C2884      C2885   1.404       .  A
C2885      C2886   1.401       .  A
C2885      F2888   1.357       .  S
C2886      F2890   1.357       .  S
C2893      C2894   1.410       .  A
C2893      C2898   1.403       .  A
C2893      F2911   1.358       .  S
C2894      C2899   1.483       .  S
C2894      C2895   1.405       .  A
C2895      C2896   1.393       .  A
C2895      F2900   1.358       .  S
C2896      C2897   1.406       .  A
C2896      F2912   1.359       .  S
C2897      C2898   1.405       .  A
C2898      F2901   1.358       .  S
C2899      C2902   1.406       .  A
C2899      C2906   1.409       .  A
C2902      C2903   1.396       .  A
C2902      F2907   1.358       .  S
C2903      C2904   1.403       .  A
C2903      F2909   1.358       .  S
C2904      C2905   1.403       .  A
C2905      C2906   1.402       .  A
C2905      F2908   1.358       .  S
C2906      F2910   1.358       .  S
C2913      C2914   1.404       .  A
C2913      C2918   1.393       .  A
C2913      F2931   1.358       .  S
C2914      C2919   1.474       .  S
C2914      C2915   1.406       .  A
C2915      C2916   1.401       .  A
C2915      F2920   1.358       .  S
C2916      C2917   1.404       .  A
C2916      F2932   1.358       .  S
C2917      C2918   1.403       .  A
C2918      F2921   1.358       .  S
C2919      C2922   1.405       .  A
C2919      C2926   1.405       .  A
C2922      C2923   1.400       .  A
C2922      F2927   1.358       .  S
C2923      C2924   1.404       .  A
C2923      F2929   1.358       .  S
C2924      C2925   1.402       .  A
C2925      C2926   1.394       .  A
C2925      F2928   1.358       .  S
C2926      F2930   1.358       .  S
C2933      C2934   1.403       .  A
C2933      C2938   1.397       .  A
C2933      F2951   1.358   1_565  S
C2934      C2939   1.478   1_565  S
C2934      C2935   1.405       .  A
C2935      C2936   1.399       .  A
C2935      F2940   1.358       .  S
C2936      C2937   1.407       .  A
C2936      F2952   1.358       .  S
C2937      C2938   1.410       .  A
C2938      F2941   1.358       .  S
C2939      C2942   1.402       .  A
C2939      C2946   1.404       .  A
C2942      C2943   1.399       .  A
C2942      F2947   1.358       .  S
C2943      C2944   1.414       .  A
C2943      F2949   1.358       .  S
C2944      C2945   1.410       .  A
C2945      C2946   1.397       .  A
C2945      F2948   1.358       .  S
C2946      F2950   1.358       .  S
