geometry optimzed in LAMMPS
_audit_creation_date              2020-12-01 
_audit_creation_method            'lammps2cif' 
_symmetry_space_group_name_H-M    'P1' 
_symmetry_Int_Tables_number       1 
_symmetry_cell_setting            triclinic 
loop_ 
_symmetry_equiv_pos_as_xyz 
  x,y,z 
_cell_length_a                    42.68567104 
_cell_length_b                    42.9074786005674 
_cell_length_c                    32.8836363458078 
_cell_angle_alpha                 89.7990132483504 
_cell_angle_beta                  90.00274478812227 
_cell_angle_gamma                 90.02110376617146 
loop_ 
_atom_site_label 
_atom_site_type_symbol 
_atom_site_fract_x 
_atom_site_fract_y 
_atom_site_fract_z 
_atom_site_charge 
Fe1        Fe  0.06711227  0.00200087  0.65701645     1.65800
Fe2        Fe  0.00968362  0.05755540  0.65743489     1.73200
Fe3        Fe  0.01863983  0.00991373  0.73939982     1.54400
O4          O  0.01588590  0.46464193  0.72304672    -0.85800
O5          O  0.00180669  0.08191962  0.71015463    -0.80900
O6          O  0.05175120  0.45917464  0.67401789    -0.85100
O7          O  0.09480489  0.00173660  0.70857353    -0.80000
O8          O  0.47243648  0.01596891  0.72600659    -0.81800
O9          O  0.05211640  0.08178090  0.64996540    -0.84500
C10         C  0.08959728  0.00106792  0.74654867     0.96300
C11         C  0.03106649  0.44820230  0.69786556     1.03700
O12         O  0.03200925  0.02310807  0.68465141    -1.13500
O13         O  0.51359037  0.03977947  0.60081808    -0.75900
O14         O  0.04391809  0.99825647  0.60186088    -0.79400
O15         O  0.06270869  0.00371736  0.76194199    -0.80100
C16         C  0.02351047  0.01477066  0.58396636     0.95200
O17         O  0.08784090  0.04439680  0.64119717    -0.78000
O18         O  0.46751412  0.03532513  0.66346201    -0.83200
C19         C  0.00717530  0.07892736  0.74781082     0.97800
C20         C  0.45641588  0.02124975  0.69434314     1.03700
O21         O  0.01892977  0.05446792  0.76312250    -0.78900
C22         C  0.08039688  0.07310997  0.64350088     1.02000
Fe23       Fe  0.18796894  0.24244206  0.65659123     1.65800
Fe24       Fe  0.24702763  0.18854767  0.65165276     1.73200
Fe25       Fe  0.23805037  0.23339163  0.73702644     1.54400
O26         O  0.23307574  0.28022040  0.72486318    -0.82600
O27         O  0.25438248  0.16066949  0.70164876    -0.80900
O28         O  0.20510036  0.28683535  0.66812788    -0.85100
O29         O  0.16276807  0.24224930  0.71028270    -0.80000
O30         O  0.28316497  0.23701706  0.71826383    -0.81800
O31         O  0.20513098  0.16427199  0.64082614    -0.84500
C32         C  0.16769403  0.23722954  0.74782653     0.96300
C33         C  0.22101156  0.29741981  0.69762080     1.03700
O34         O  0.22433638  0.22140041  0.68179452    -1.13500
O35         O  0.24510370  0.21089168  0.59636556    -0.75900
O36         O  0.20772583  0.24655163  0.59913814    -0.79400
O37         O  0.19443435  0.23158351  0.76238635    -0.80100
C38         C  0.22945465  0.23264139  0.58026907     0.95200
O39         O  0.16708101  0.19985964  0.64348516    -0.78000
O40         O  0.29031925  0.21014105  0.66088290    -0.83200
C41         C  0.25332249  0.16340553  0.73990202     0.97800
C42         C  0.30011607  0.22808003  0.68898833     1.03700
O43         O  0.24530818  0.18836469  0.75742752    -0.78900
C44         C  0.17612427  0.17177408  0.63924067     1.02000
Fe45       Fe  0.25541320  0.31716956  0.34656550     1.65800
Fe46       Fe  0.31099772  0.26079660  0.34529412     1.73200
Fe47       Fe  0.26194094  0.26965622  0.26505840     1.54400
O48         O  0.21595284  0.27935907  0.27733819    -0.82600
O49         O  0.33888101  0.26484915  0.29452420    -0.80900
O50         O  0.21226466  0.29516074  0.34154947    -0.85100
O51         O  0.24795564  0.34109045  0.29252962    -0.80000
O52         O  0.25425104  0.22507747  0.28541858    -0.81800
O53         O  0.33132912  0.30194168  0.36566535    -0.84500
C54         C  0.25600422  0.33822780  0.25550153     0.96300
C55         C  0.20036713  0.28362876  0.30955938     1.03700
O56         O  0.27635640  0.28260615  0.31902476    -1.13500
O57         O  0.28647040  0.25454321  0.39891619    -0.75900
O58         O  0.25887191  0.29813524  0.40437270    -0.79400
O59         O  0.26794907  0.31353809  0.24126787    -0.80100
C60         C  0.26908369  0.27278368  0.41921145     0.95200
O61         O  0.29773434  0.34078503  0.35340523    -0.78000
O62         O  0.29527131  0.21716734  0.32648580    -0.83200
C63         C  0.33318174  0.25944110  0.25737389     0.97800
C64         C  0.27221908  0.20728732  0.30557094     1.03700
O65         O  0.30566733  0.25738786  0.24335143    -0.78900
C66         C  0.32494300  0.33088342  0.36300614     1.02000
Fe67       Fe  0.49601257  0.43982116  0.35014967     1.65800
Fe68       Fe  0.43613614  0.49306559  0.35109133     1.73200
Fe69       Fe  0.48344191  0.48700583  0.26744427     1.54400
O70         O  0.02917160  0.49337951  0.28426299    -0.82600
O71         O  0.40883699  0.49327055  0.29890230    -0.80900
O72         O  0.03948640  0.46449436  0.33938866    -0.85100
O73         O  0.00279820  0.41484548  0.30082900    -0.80000
O74         O  0.47992237  0.03423695  0.28307814    -0.81800
O75         O  0.41649351  0.45008937  0.36440897    -0.84500
C76         C  0.49920077  0.41739956  0.26090510     0.96300
C77         C  0.04754840  0.48389234  0.31186442     1.03700
O78         O  0.47187430  0.47326726  0.32288133    -1.13500
O79         O  0.46046550  0.99578957  0.40758062    -0.75900
O80         O  0.49655155  0.46110368  0.40593734    -0.79400
O81         O  0.49126790  0.44299592  0.24489903    -0.80100
C82         C  0.48180074  0.48272388  0.42348491     0.95200
O83         O  0.45500792  0.41493338  0.36285805    -0.78000
O84         O  0.45327649  0.03816246  0.34130599    -0.83200
C85         C  0.41264560  0.48893878  0.26097799     0.97800
C86         C  0.46821314  0.05012281  0.31179751     1.03700
O87         O  0.43904995  0.48426745  0.24487006    -0.78900
C88         C  0.42606018  0.42201802  0.36590320     1.02000
Fe89       Fe  0.43955969  0.25300548  0.84449005     1.65800
Fe90       Fe  0.99845551  0.30696242  0.84621615     1.73200
Fe91       Fe  0.48873133  0.26170209  0.76331132     1.54400
O92         O  0.49108205  0.21556035  0.78046595    -0.82600
O93         O  0.50919861  0.33091793  0.79499997    -0.80900
O94         O  0.45583774  0.20876484  0.83029575    -0.85100
O95         O  0.41230881  0.25388163  0.79276680    -0.80000
O96         O  0.03603959  0.26677602  0.77835207    -0.81800
O97         O  0.45804872  0.33231626  0.85443607    -0.84500
C98         C  0.41779149  0.25300368  0.75493781     0.96300
C99         C  0.47647126  0.19849620  0.80582037     1.03700
O100        O  0.47546831  0.27358635  0.81833367    -1.13500
O101        O  0.99289443  0.28942652  0.90409159    -0.75900
O102        O  0.46127932  0.24778893  0.90028578    -0.79400
O103        O  0.44482993  0.25571553  0.74008006    -0.80100
C104        C  0.48127367  0.26351645  0.91981080     0.95200
O105        O  0.42035740  0.29602168  0.85978758    -0.78000
O106        O  0.04020822  0.28185887  0.84276704    -0.83200
C107        C  0.50214930  0.32990959  0.75759545     0.97800
C108        C  0.05143834  0.26909414  0.81107840     1.03700
O109        O  0.48808815  0.30692522  0.74182155    -0.78900
C110        C  0.42938094  0.32443561  0.85970435     1.02000
Fe111      Fe  0.31875537  0.49050394  0.84932477     1.65800
Fe112      Fe  0.26048353  0.43635928  0.85369439     1.73200
Fe113      Fe  0.26716398  0.48285408  0.77030563     1.54400
O114        O  0.26564064  0.02736575  0.78158917    -0.82600
O115        O  0.25106985  0.41182758  0.80157532    -0.80900
O116        O  0.30265235  0.03420712  0.82887111    -0.85100
O117        O  0.34489993  0.48766765  0.79693237    -0.80000
O118        O  0.22121549  0.47846287  0.78669517    -0.81800
O119        O  0.30212591  0.41170198  0.85884581    -0.84500
C120        C  0.33856749  0.49023193  0.75939838     0.96300
C121        C  0.28182187  0.04460242  0.80465472     1.03700
O122        O  0.28224609  0.47002272  0.82441873    -1.13500
O123        O  0.26502182  0.45593218  0.91062688    -0.75900
O124        O  0.29650562  0.49677160  0.90490773    -0.79400
O125        O  0.31092250  0.49018745  0.74560637    -0.80100
C126        C  0.27708841  0.48049053  0.92503429     0.95200
O127        O  0.33917830  0.44788968  0.86608903    -0.78000
O128        O  0.21727749  0.45837888  0.84918880    -0.83200
C129        C  0.25580455  0.41386027  0.76359005     0.97800
C130        C  0.20549209  0.47160418  0.81809922     1.03700
O131        O  0.26745622  0.43801268  0.74714313    -0.78900
C132        C  0.33072301  0.41942253  0.86338032     1.02000
Fe133      Fe  0.00811976  0.18970001  0.15420943     1.65800
Fe134      Fe  0.06484969  0.24470416  0.15820338     1.73200
Fe135      Fe  0.01406580  0.23558907  0.23716831     1.54400
O136        O  0.46670131  0.23270170  0.22546770    -0.82600
O137        O  0.09182316  0.24053105  0.20974232    -0.80900
O138        O  0.46151345  0.21137671  0.16402397    -0.85100
O139        O  0.99685227  0.16587691  0.20663488    -0.80000
O140        O  0.00945337  0.28124700  0.21895636    -0.81800
O141        O  0.08465322  0.20262493  0.13869900    -0.84500
C142        C  0.00273902  0.16739272  0.24438234     0.96300
C143        C  0.45040599  0.22588395  0.19453414     1.03700
O144        O  0.02930527  0.22335760  0.18332968    -1.13500
O145        O  0.04120585  0.25195489  0.10393750    -0.75900
O146        O  0.01466202  0.20807349  0.09679990    -0.79400
O147        O  0.01640417  0.19069812  0.26009462    -0.80100
C148        C  0.02423958  0.23392503  0.08288991     0.95200
O149        O  0.04981180  0.16476549  0.15067388    -0.78000
O150        O  0.04972951  0.28882040  0.17652939    -0.83200
C151        C  0.08538093  0.24477676  0.24695649     0.97800
C152        C  0.02724885  0.29892904  0.19831326     1.03700
O153        O  0.05772696  0.24502286  0.26076041    -0.78900
C154        C  0.07750627  0.17378375  0.14196207     1.02000
Fe155      Fe  0.24735381  0.06169625  0.15237331     1.65800
Fe156      Fe  0.18792772  0.00842505  0.15486956     1.73200
Fe157      Fe  0.23510307  0.01917930  0.23769533     1.54400
O158        O  0.28142902  0.02120308  0.22441765    -0.82600
O159        O  0.16023972  0.00801534  0.20634519    -0.80900
O160        O  0.28883481  0.03674897  0.16045642    -0.85100
O161        O  0.25667999  0.08777352  0.20349399    -0.80000
O162        O  0.24048614  0.47409948  0.22092165    -0.81800
O163        O  0.16790164  0.05156131  0.14024655    -0.84500
C164        C  0.24906281  0.08751078  0.24068578     0.96300
C165        C  0.29838302  0.02375679  0.19305323     1.03700
O166        O  0.22320293  0.02964015  0.18156989    -1.13500
O167        O  0.21148555  0.50519794  0.10235793    -0.75900
O168        O  0.24429043  0.04201310  0.09566063    -0.79400
O169        O  0.23500812  0.06474289  0.25701743    -0.80100
C170        C  0.23053294  0.01910957  0.07962950     0.95200
O171        O  0.20619588  0.08725655  0.14394098    -0.78000
O172        O  0.20367758  0.46708075  0.17318023    -0.83200
C173        C  0.16467175  0.00997979  0.24433391     0.97800
C174        C  0.22503456  0.45685607  0.19682801     1.03700
O175        O  0.19097602  0.01524471  0.25997445    -0.78900
C176        C  0.17723990  0.07994236  0.14051540     1.02000
C177        C  0.10315257  0.15015399  0.13753108    -0.07100
C178        C  0.13314520  0.15777485  0.15219484    -0.18200
C179        C  0.15774820  0.13587275  0.15328749     0.10100
C180        C  0.15285743  0.10528215  0.13800457    -0.07000
C181        C  0.12289943  0.09793711  0.12263985    -0.18200
C182        C  0.09832409  0.11977879  0.12208654     0.10200
S183        S  0.19414545  0.14706582  0.17750878    -0.33200
S184        S  0.06159373  0.10745100  0.10040530    -0.33200
H185        H  0.05506910  0.13626181  0.08167079     0.28200
H186        H  0.18588504  0.17787900  0.18724104     0.28200
H187        H  0.13691910  0.18077797  0.16465821     0.18800
H188        H  0.11843400  0.07481907  0.11083889     0.18800
C189        C  0.26640373  0.49088912  0.96601911    -0.07100
C190        C  0.23514992  0.48471645  0.97726076    -0.18200
C191        C  0.22088994  0.99424514  0.00985865     0.10100
C192        C  0.24069572  0.00949500  0.03801168    -0.07000
C193        C  0.27294624  0.51827030  0.03030178    -0.18200
C194        C  0.28547542  0.50785253  0.99330036     0.10200
S195        S  0.17959324  0.98853748  0.01856746    -0.33200
S196        S  0.32632824  0.51569507  0.98392131    -0.33200
H197        H  0.33251728  0.48644332  0.96646582     0.28200
H198        H  0.17501516  0.01767931  0.03715285     0.28200
H199        H  0.21989339  0.47238652  0.95644940     0.18800
H200        H  0.28816342  0.53064559  0.05112044     0.18800
C201        C  0.48955297  0.25475994  0.96231034    -0.07100
C202        C  0.00007763  0.28001569  0.98809340    -0.18200
C203        C  0.01152207  0.27381637  0.02720701     0.10100
C204        C  0.01474619  0.24260613  0.04065378    -0.07000
C205        C  0.49992268  0.21705871  0.01618783    -0.18200
C206        C  0.49017804  0.22352350  0.97621362     0.10200
S207        S  0.02003555  0.30689786  0.05886412    -0.33200
S208        S  0.48057151  0.19143300  0.94290011    -0.33200
H209        H  0.48288145  0.16749624  0.97208061     0.28200
H210        H  0.05220284  0.29987595  0.06089698     0.28200
H211        H  0.99756152  0.30409476  0.97858138     0.18800
H212        H  0.50090995  0.19309305  0.02648321     0.18800
C213        C  0.40450574  0.34892508  0.86336683    -0.07100
C214        C  0.37585501  0.34353553  0.84349759    -0.18200
C215        C  0.35161817  0.36573677  0.84305934     0.10100
C216        C  0.35538596  0.39436038  0.86412545    -0.07000
C217        C  0.38417432  0.39981402  0.88396746    -0.18200
C218        C  0.40847290  0.37753253  0.88406150     0.10200
S219        S  0.31723482  0.35774866  0.81249919    -0.33200
S220        S  0.44348255  0.38666823  0.91221360    -0.33200
H221        H  0.44849127  0.35607443  0.92631434     0.28200
H222        H  0.32621198  0.32819946  0.79826472     0.28200
H223        H  0.37286639  0.32201824  0.82683203     0.18800
H224        H  0.38773474  0.42155870  0.89996910     0.18800
C225        C  0.47089738  0.08411218  0.30826016    -0.07100
C226        C  0.99680931  0.10003463  0.31991103    -0.18200
C227        C  0.00798600  0.12771859  0.30214471     0.10100
C228        C  0.99104664  0.14139472  0.26977310    -0.07000
C229        C  0.46100416  0.12820802  0.26427101    -0.18200
C230        C  0.45117640  0.09998952  0.28091391     0.10200
S231        S  0.04535368  0.14231165  0.31894095    -0.33200
S232        S  0.41455902  0.08399066  0.26318942    -0.33200
H233        H  0.40870896  0.06556418  0.29778683     0.28200
H234        H  0.05691711  0.14765133  0.27946979     0.28200
H235        H  0.01087346  0.08834068  0.34269431     0.18800
H236        H  0.44633278  0.13941587  0.24160737     0.18800
C237        C  0.02302078  0.33275821  0.20345867    -0.07100
C238        C  0.04622318  0.34869043  0.22517979    -0.18200
C239        C  0.04026983  0.37797042  0.24195285     0.10100
C240        C  0.01029741  0.39156754  0.23747097    -0.07000
C241        C  0.48482345  0.37590477  0.21228512    -0.18200
C242        C  0.49100717  0.34682663  0.19484132     0.10200
S243        S  0.07137929  0.39620611  0.27042897    -0.33200
S244        S  0.46024503  0.32847518  0.16606187    -0.33200
H245        H  0.47937921  0.30671722  0.14607178     0.28200
H246        H  0.06219527  0.42697027  0.26161778     0.28200
H247        H  0.06846420  0.33742576  0.23133202     0.18800
H248        H  0.46148825  0.38572405  0.21019670     0.18800
C249        C  0.08006644  0.49498561  0.30883333    -0.07100
C250        C  0.10444863  0.47343919  0.31371169    -0.18200
C251        C  0.13385167  0.47915467  0.29643018     0.10100
C252        C  0.13840398  0.50648009  0.27299061    -0.07000
C253        C  0.11536440  0.02925115  0.27210541    -0.18200
C254        C  0.08658584  0.02405548  0.29069247     0.10200
S255        S  0.16313069  0.44915752  0.30087704    -0.33200
S256        S  0.05886139  0.05563852  0.28997816    -0.33200
H257        H  0.04216250  0.04484974  0.32411084     0.28200
H258        H  0.18676157  0.46967177  0.31381310     0.28200
H259        H  0.09990576  0.45104434  0.32785370     0.18800
H260        H  0.11967824  0.05120122  0.25663127     0.18800
C261        C  0.38640772  0.99384804  0.23558193    -0.07100
C262        C  0.38573831  0.01765981  0.20608464    -0.18200
C263        C  0.35764418  0.02604439  0.18688312     0.10100
C264        C  0.32992306  0.01012413  0.19746048    -0.07000
C265        C  0.32973426  0.48360048  0.22503591    -0.18200
C266        C  0.35759180  0.47447418  0.24347418     0.10200
S267        S  0.35796678  0.05922893  0.15332289    -0.33200
S268        S  0.35606514  0.44326678  0.28042472    -0.33200
H269        H  0.38740712  0.43381967  0.27564982     0.28200
H270        H  0.33941791  0.04467070  0.12356453     0.28200
H271        H  0.40666492  0.03124091  0.20016783     0.18800
H272        H  0.30819436  0.47247580  0.23479808     0.18800
C273        C  0.35119207  0.35344373  0.36881462    -0.07100
C274        C  0.38087284  0.34539820  0.35362101    -0.18200
C275        C  0.40576413  0.36671160  0.35295258     0.10100
C276        C  0.40178537  0.39689657  0.36961594    -0.07000
C277        C  0.37253599  0.40422475  0.38718757    -0.18200
C278        C  0.34734234  0.38295507  0.38698631     0.10200
S279        S  0.44084175  0.35453184  0.32699025    -0.33200
S280        S  0.31084718  0.39331567  0.41124493    -0.33200
H281        H  0.32088659  0.42195910  0.42734655     0.28200
H282        H  0.44132962  0.38074493  0.30114146     0.28200
H283        H  0.38429138  0.32272301  0.33992986     0.18800
H284        H  0.36920774  0.42700889  0.40053476     0.18800
C285        C  0.23228464  0.42336539  0.19832719    -0.07100
C286        C  0.26398246  0.41475157  0.20127955    -0.18200
C287        C  0.27265862  0.38540101  0.21584651     0.10100
C288        C  0.24919673  0.36445699  0.22837730    -0.07000
C289        C  0.21759575  0.37188464  0.22189634    -0.18200
C290        C  0.20888135  0.40091383  0.20627338     0.10200
S291        S  0.31372320  0.37738120  0.22245992    -0.33200
S292        S  0.16765391  0.40930237  0.20255210    -0.33200
H293        H  0.16980699  0.42041814  0.16236711     0.28200
H294        H  0.31131709  0.34628610  0.20958600     0.28200
H295        H  0.28210097  0.43171604  0.19465206     0.18800
H296        H  0.19951608  0.35566560  0.23145055     0.18800
C297        C  0.25724002  0.11492393  0.26520734    -0.07100
C298        C  0.23406709  0.12914165  0.28898804    -0.18200
C299        C  0.23932748  0.15832364  0.30666934     0.10100
C300        C  0.26818987  0.17362368  0.30002902    -0.07000
C301        C  0.29222508  0.15808886  0.27946782    -0.18200
C302        C  0.28717810  0.12887451  0.26226408     0.10200
S303        S  0.20840326  0.17475456  0.33705911    -0.33200
S304        S  0.31962606  0.11114650  0.23585291    -0.33200
H305        H  0.31116095  0.08030368  0.24538565     0.28200
H306        H  0.22712033  0.19652770  0.35772434     0.28200
H307        H  0.21131688  0.11818969  0.29221878     0.18800
H308        H  0.31452805  0.16962311  0.27457051     0.18800
C309        C  0.35984682  0.25462973  0.22988550    -0.07100
C310        C  0.36289704  0.22584495  0.20992919    -0.18200
C311        C  0.39158186  0.21687017  0.19261294     0.10100
C312        C  0.41765192  0.23693198  0.19598800    -0.07000
C313        C  0.41321595  0.26696837  0.21189649    -0.18200
C314        C  0.38467507  0.27616193  0.22836007     0.10200
S315        S  0.39460593  0.17826907  0.17183386    -0.33200
S316        S  0.38228517  0.31492406  0.24934765    -0.33200
H317        H  0.34947868  0.31711510  0.24935419     0.28200
H318        H  0.41191524  0.18791194  0.13765433     0.28200
H319        H  0.34365822  0.20935705  0.21056284     0.18800
H320        H  0.43301388  0.28250914  0.21487178     0.18800
C321        C  0.16791393  0.27242924  0.30824528    -0.07100
C322        C  0.16416626  0.24127331  0.29628860    -0.18200
C323        C  0.13617628  0.23057000  0.27973602     0.10100
C324        C  0.11124564  0.25157858  0.27469780    -0.07000
C325        C  0.11378057  0.28201856  0.29000969    -0.18200
C326        C  0.14199320  0.29275370  0.30666599     0.10200
S327        S  0.13459078  0.19072375  0.26243316    -0.33200
S328        S  0.14484272  0.33347017  0.31929455    -0.33200
H329        H  0.16543985  0.32906512  0.35210719     0.28200
H330        H  0.10185279  0.18766387  0.26497939     0.28200
H331        H  0.18424497  0.22592214  0.29620939     0.18800
H332        H  0.09459514  0.29827551  0.28580057     0.18800
C333        C  0.23771489  0.24252152  0.53826126    -0.07100
C334        C  0.23903533  0.27447995  0.52903000    -0.18200
C335        C  0.25029007  0.28519897  0.49137195     0.10100
C336        C  0.25944996  0.26348767  0.46113390    -0.07000
C337        C  0.25786358  0.23153948  0.47046783    -0.18200
C338        C  0.24703360  0.22089290  0.50820923     0.10200
S339        S  0.25426098  0.32679713  0.48520102    -0.33200
S340        S  0.24455758  0.17926554  0.51532919    -0.33200
H341        H  0.21684394  0.18013099  0.53847170     0.28200
H342        H  0.28351857  0.32510792  0.46557416     0.28200
H343        H  0.23266485  0.29133761  0.55207350     0.18800
H344        H  0.26432287  0.21449326  0.44771394     0.18800
C345        C  0.08313760  0.25548026  0.80944981    -0.07100
C346        C  0.08606606  0.22845979  0.78555744    -0.18200
C347        C  0.11452769  0.21988859  0.76852649     0.10100
C348        C  0.14087922  0.23866972  0.77541236    -0.07000
C349        C  0.13923245  0.26300453  0.80384446    -0.18200
C350        C  0.11045400  0.27165884  0.82106111     0.10200
S351        S  0.11515833  0.18644586  0.73532295    -0.33200
S352        S  0.10942629  0.30571578  0.85274910    -0.33200
H353        H  0.08940317  0.29208085  0.88174514     0.28200
H354        H  0.14725887  0.17992182  0.73997188     0.28200
H355        H  0.06535181  0.21554836  0.77670276     0.18800
H356        H  0.15986825  0.27689771  0.81006151     0.18800
C357        C  0.33301045  0.23821565  0.69074783    -0.07100
C358        C  0.35649788  0.21548899  0.68852058    -0.18200
C359        C  0.38573183  0.22050954  0.70669022     0.10100
C360        C  0.39136905  0.24889945  0.72720417    -0.07000
C361        C  0.36926953  0.27276679  0.72527487    -0.18200
C362        C  0.34045136  0.26794077  0.70662118     0.10200
S363        S  0.41281422  0.18827648  0.70774610    -0.33200
S364        S  0.31314462  0.29987312  0.70712828    -0.33200
H365        H  0.29570194  0.28918736  0.67365965     0.28200
H366        H  0.44000466  0.20634088  0.70331069     0.28200
H367        H  0.35110821  0.19271576  0.67626877     0.18800
H368        H  0.37390226  0.29482149  0.74015758     0.18800
C369        C  0.27741605  0.07834164  0.79978814    -0.07100
C370        C  0.30001933  0.09438985  0.77708992    -0.18200
C371        C  0.29331064  0.12338134  0.75976159     0.10100
C372        C  0.26314830  0.13644416  0.76452611    -0.07000
C373        C  0.24144140  0.12169968  0.79010335    -0.18200
C374        C  0.24840413  0.09283488  0.80803232     0.10200
S375        S  0.32376750  0.14203866  0.73053636    -0.33200
S376        S  0.21912399  0.07521544  0.84013466    -0.33200
H377        H  0.23948524  0.05474255  0.86062780     0.28200
H378        H  0.31464164  0.17258097  0.74038520     0.28200
H379        H  0.32234653  0.08340249  0.77064698     0.18800
H380        H  0.21850160  0.13195580  0.79458301     0.18800
C381        C  0.22427726  0.33121006  0.70335403    -0.07100
C382        C  0.25067760  0.34676038  0.68773636    -0.18200
C383        C  0.26142081  0.37462126  0.70540998     0.10100
C384        C  0.24492063  0.38729879  0.73875338    -0.07000
C385        C  0.21672220  0.37325551  0.75094644    -0.18200
C386        C  0.20614173  0.34575708  0.73346626     0.10200
S387        S  0.29757404  0.39094902  0.68677974    -0.33200
S388        S  0.17041127  0.32911493  0.75313722    -0.33200
H389        H  0.16264033  0.31240457  0.71786360     0.28200
H390        H  0.30968630  0.39776613  0.72551060     0.28200
H391        H  0.26434973  0.33593875  0.66395051     0.18800
H392        H  0.20322661  0.38324038  0.77545772     0.18800
C393        C  0.01260965  0.00586887  0.54284955    -0.07100
C394        C  0.03475960  0.99907028  0.51274739    -0.18200
C395        C  0.02555021  0.99284142  0.47268806     0.10100
C396        C  0.49265125  0.49240126  0.46446968    -0.07000
C397        C  0.47053370  0.49713173  0.49538259    -0.18200
C398        C  0.47989758  0.50372273  0.53533079     0.10200
S399        S  0.05633991  0.98718139  0.43587601    -0.33200
S400        S  0.44962029  0.50692582  0.57329711    -0.33200
H401        H  0.46711390  0.49274431  0.60452674     0.28200
H402        H  0.04119810  0.00400065  0.40475945     0.28200
H403        H  0.05949384  0.99967817  0.52015895     0.18800
H404        H  0.44580055  0.49460404  0.48870178     0.18800
C405        C  0.10578522  0.09748340  0.63921679    -0.07100
C406        C  0.09730564  0.12831974  0.62946566    -0.18200
C407        C  0.11960686  0.15242349  0.62636366     0.10100
C408        C  0.15175849  0.14647666  0.63477606    -0.07000
C409        C  0.16039804  0.11546691  0.64303431    -0.18200
C410        C  0.13824944  0.09124599  0.64540127     0.10200
S411        S  0.10516035  0.18993176  0.61023168    -0.33200
S412        S  0.15359248  0.05339643  0.65845171    -0.33200
H413        H  0.13167721  0.04837572  0.68946593     0.28200
H414        H  0.13027867  0.19551428  0.58343229     0.28200
H415        H  0.07294230  0.13378152  0.62357943     0.18800
H416        H  0.18468748  0.11003197  0.64947394     0.18800
C417        C  0.11605190  0.49605104  0.77724626    -0.07100
C418        C  0.12150490  0.46510817  0.78927941    -0.18200
C419        C  0.14942589  0.45676297  0.80897458     0.10100
C420        C  0.17220662  0.47981371  0.81609691    -0.07000
C421        C  0.16512846  0.51114442  0.80786236    -0.18200
C422        C  0.13703079  0.51962144  0.78918636     0.10200
S423        S  0.15717288  0.41645883  0.82113265    -0.33200
S424        S  0.13021785  0.56054068  0.77990753    -0.33200
H425        H  0.09773151  0.05794471  0.77211000     0.28200
H426        H  0.12928029  0.40420684  0.80490700     0.28200
H427        H  0.10470983  0.44728489  0.78103271     0.18800
H428        H  0.18265388  0.52884649  0.81318746     0.18800
C429        C  0.36478212  0.49435532  0.73105105    -0.07100
C430        C  0.36858165  0.01843304  0.70487842    -0.18200
C431        C  0.39736310  0.02737370  0.68782654     0.10100
C432        C  0.42412633  0.00901394  0.69566366    -0.07000
C433        C  0.41836652  0.48260499  0.71395992    -0.18200
C434        C  0.39010388  0.47345734  0.73132649     0.10200
S435        S  0.39919283  0.06411777  0.66141656    -0.33200
S436        S  0.38864754  0.43598733  0.75649534    -0.33200
H437        H  0.35606814  0.43189747  0.75297097     0.28200
H438        H  0.41829828  0.05285695  0.62997934     0.28200
H439        H  0.34865473  0.03396114  0.70221773     0.18800
H440        H  0.43852176  0.46764697  0.71807110     0.18800
C441        C  0.99798224  0.10503125  0.77399762    -0.07100
C442        C  0.02101196  0.12200295  0.79465655    -0.18200
C443        C  0.01419021  0.15155754  0.81039300     0.10100
C444        C  0.48282723  0.16490981  0.80449786    -0.07000
C445        C  0.45921902  0.14558550  0.78936424    -0.18200
C446        C  0.46628261  0.11581689  0.77515445     0.10200
S447        S  0.04483225  0.17186284  0.83708543    -0.33200
S448        S  0.43456473  0.09284347  0.75505058    -0.33200
H449        H  0.44758161  0.06408638  0.76670160     0.28200
H450        H  0.02530267  0.19339977  0.85685560     0.28200
H451        H  0.04472952  0.11308513  0.79642679     0.18800
H452        H  0.43557354  0.15445195  0.78608549     0.18800
C453        C  0.01161101  0.35504793  0.72968857    -0.07100
C454        C  0.48834617  0.37273361  0.71009671    -0.18200
C455        C  0.49458138  0.40233500  0.69393456     0.10100
C456        C  0.02557050  0.41450596  0.69908277    -0.07000
C457        C  0.04943056  0.39583988  0.71515643    -0.18200
C458        C  0.04283047  0.36608064  0.73006800     0.10200
S459        S  0.46386534  0.42159569  0.66591287    -0.33200
S460        S  0.07482095  0.34391652  0.75129531    -0.33200
H461        H  0.06257931  0.31481513  0.73990746     0.28200
H462        H  0.48350581  0.44243645  0.64484682     0.28200
H463        H  0.46501986  0.36298761  0.70731553     0.18800
H464        H  0.07281871  0.40530186  0.71883722     0.18800
Fe465      Fe  0.06730372  0.50372824  0.66017058     1.65800
Fe466      Fe  0.00947377  0.55871371  0.66149135     1.73200
Fe467      Fe  0.01854405  0.51001872  0.74228670     1.54400
O468        O  0.01624448  0.96403907  0.72171270    -0.85800
O469        O  0.00104364  0.58206690  0.71505548    -0.80900
O470        O  0.05043159  0.95768923  0.67085144    -0.85100
O471        O  0.09525937  0.50411858  0.71170147    -0.80000
O472        O  0.47059108  0.51830882  0.72592588    -0.81800
O473        O  0.05162072  0.58360432  0.65480421    -0.84500
C474        C  0.08985105  0.50201833  0.74958047     0.96300
C475        C  0.03040065  0.94714448  0.69601225     1.03700
O476        O  0.03200200  0.52414556  0.68803107    -1.13500
O477        O  0.51200482  0.54073214  0.60069457    -0.75900
O478        O  0.04368696  0.49972777  0.60531348    -0.79400
O479        O  0.06271331  0.50315995  0.76465141    -0.80100
C480        C  0.02366303  0.51668121  0.58733473     0.95200
O481        O  0.08700586  0.54624240  0.64387995    -0.78000
O482        O  0.46586411  0.53789246  0.66354600    -0.83200
C483        C  0.00701991  0.57861928  0.75253402     0.97800
C484        C  0.45456881  0.52397790  0.69443362     1.03700
O485        O  0.01922433  0.55410619  0.76702925    -0.78900
C486        C  0.07970622  0.57488554  0.64715399     1.02000
Fe487      Fe  0.19033011  0.74124491  0.65518132     1.65800
Fe488      Fe  0.24847047  0.68630224  0.65378727     1.73200
Fe489      Fe  0.23924235  0.73365919  0.73680871     1.54400
O490        O  0.23283149  0.78014798  0.72351982    -0.82600
O491        O  0.25309794  0.65889659  0.70480652    -0.80900
O492        O  0.20823881  0.78529703  0.66406843    -0.85100
O493        O  0.16486938  0.74336054  0.70883848    -0.80000
O494        O  0.28420335  0.73817755  0.71770450    -0.81800
O495        O  0.20614483  0.66310427  0.64126176    -0.84500
C496        C  0.16910654  0.73782590  0.74646514     0.96300
C497        C  0.22226700  0.79660325  0.69452156     1.03700
O498        O  0.22601344  0.72025034  0.68199101    -1.13500
O499        O  0.24908614  0.70827052  0.59805424    -0.75900
O500        O  0.21077009  0.74305629  0.59785299    -0.79400
O501        O  0.19542502  0.73090841  0.76150926    -0.80100
C502        C  0.23349816  0.72945607  0.58056593     0.95200
O503        O  0.16857383  0.69913391  0.64417282    -0.78000
O504        O  0.29229046  0.70659458  0.66476937    -0.83200
C505        C  0.25390110  0.66327050  0.74281849     0.97800
C506        C  0.30171571  0.72671457  0.69052652     1.03700
O507        O  0.24815633  0.68936409  0.75899594    -0.78900
C508        C  0.17723492  0.67102925  0.63984669     1.02000
Fe509      Fe  0.25888093  0.81455124  0.34740390     1.65800
Fe510      Fe  0.31548472  0.75861959  0.34455865     1.73200
Fe511      Fe  0.26417245  0.76653599  0.26572161     1.54400
O512        O  0.21817313  0.77401425  0.28018239    -0.82600
O513        O  0.34202921  0.76114653  0.29226589    -0.80900
O514        O  0.21508063  0.79380844  0.34256914    -0.85100
O515        O  0.25148327  0.83917365  0.29392403    -0.80000
O516        O  0.25878206  0.72170270  0.28640142    -0.81800
O517        O  0.33641656  0.80008403  0.36196318    -0.84500
C518        C  0.25741892  0.83594028  0.25630073     0.96300
C519        C  0.20270077  0.78133556  0.31150649     1.03700
O520        O  0.27967422  0.77994154  0.31923993    -1.13500
O521        O  0.29308487  0.75324141  0.40000012    -0.75900
O522        O  0.26229409  0.79471717  0.40486584    -0.79400
O523        O  0.26755159  0.81072336  0.24115594    -0.80100
C524        C  0.27441167  0.77031705  0.42005812     0.95200
O525        O  0.30118318  0.83804690  0.35409123    -0.78000
O526        O  0.29913741  0.71477382  0.32892321    -0.83200
C527        C  0.33545732  0.75690141  0.25509311     0.97800
C528        C  0.27619871  0.70453352  0.30824458     1.03700
O529        O  0.30766275  0.75608611  0.24183935    -0.78900
C530        C  0.32905198  0.82880840  0.36098200     1.02000
Fe531      Fe  0.49823121  0.94052612  0.34939777     1.65800
Fe532      Fe  0.43789276  0.99311514  0.35177874     1.73200
Fe533      Fe  0.48471099  0.98798914  0.26747868     1.54400
O534        O  0.02916146  0.99332460  0.28172827    -0.82600
O535        O  0.41012807  0.99422478  0.30012469    -0.80900
O536        O  0.03856701  0.96396608  0.33663440    -0.85100
O537        O  0.00158196  0.91568762  0.29580226    -0.80000
O538        O  0.47747065  0.53320005  0.28095953    -0.81800
O539        O  0.41878054  0.94976773  0.36398862    -0.84500
C540        C  0.50115297  0.91873817  0.25957890     0.96300
C541        C  0.04711204  0.98346400  0.30951107     1.03700
O542        O  0.47356777  0.97387815  0.32283771    -1.13500
O543        O  0.45846917  0.49618474  0.40722140    -0.75900
O544        O  0.49793456  0.96019985  0.40600164    -0.79400
O545        O  0.49109986  0.94374841  0.24378627    -0.80100
C546        C  0.48353488  0.98189997  0.42372406     0.95200
O547        O  0.45750350  0.91483637  0.36020517    -0.78000
O548        O  0.45168122  0.53810513  0.33957702    -0.83200
C549        C  0.41384458  0.99120540  0.26200438     0.97800
C550        C  0.46600368  0.54958558  0.30920533     1.03700
O551        O  0.44014753  0.98694056  0.24552441    -0.78900
C552        C  0.42853610  0.92172631  0.36378671     1.02000
Fe553      Fe  0.44195413  0.75418462  0.84629803     1.65800
Fe554      Fe  0.99917514  0.80651533  0.84781983     1.73200
Fe555      Fe  0.49043797  0.76132781  0.76456573     1.54400
O556        O  0.49532159  0.71615773  0.78485579    -0.82600
O557        O  0.50948612  0.83122283  0.79203903    -0.80900
O558        O  0.45814693  0.70974289  0.83226724    -0.85100
O559        O  0.41397842  0.75497447  0.79527413    -0.80000
O560        O  0.03595079  0.76581602  0.77925861    -0.81800
O561        O  0.45885542  0.83413192  0.85205049    -0.84500
C562        C  0.41935184  0.75140490  0.75768062     0.96300
C563        C  0.47991045  0.69927914  0.80960090     1.03700
O564        O  0.47708372  0.77467586  0.81886053    -1.13500
O565        O  0.99487414  0.78859066  0.90566526    -0.75900
O566        O  0.46551105  0.74972029  0.90084674    -0.79400
O567        O  0.44650849  0.75199131  0.74261647    -0.80100
C568        C  0.48504050  0.76654033  0.91964280     0.95200
O569        O  0.42242066  0.79710539  0.86166156    -0.78000
O570        O  0.04131793  0.78191141  0.84298878    -0.83200
C571        C  0.50184997  0.82915927  0.75488261     0.97800
C572        C  0.05211458  0.76895789  0.81117170     1.03700
O573        O  0.48743751  0.80577790  0.74059598    -0.78900
C574        C  0.43060592  0.82570173  0.85917865     1.02000
Fe575      Fe  0.31785582  0.98976819  0.84570851     1.65800
Fe576      Fe  0.26015538  0.93508801  0.84874652     1.73200
Fe577      Fe  0.26786527  0.98147616  0.76516633     1.54400
O578        O  0.26456806  0.52848237  0.78816882    -0.82600
O579        O  0.25102201  0.91049529  0.79667729    -0.80900
O580        O  0.30333149  0.53500516  0.83321038    -0.85100
O581        O  0.34489587  0.98670231  0.79416117    -0.80000
O582        O  0.22177474  0.97783019  0.78129878    -0.81800
O583        O  0.30188550  0.91064911  0.85440461    -0.84500
C584        C  0.33937034  0.98801608  0.75630538     0.96300
C585        C  0.28163018  0.54556139  0.81041649     1.03700
O586        O  0.28203064  0.96892563  0.81982449    -1.13500
O587        O  0.26392713  0.95447980  0.90592913    -0.75900
O588        O  0.29443328  0.99606742  0.90045744    -0.79400
O589        O  0.31205574  0.98758440  0.74145911    -0.80100
C590        C  0.27527596  0.97933978  0.92039812     0.95200
O591        O  0.33818897  0.94735458  0.86346628    -0.78000
O592        O  0.21718925  0.95706585  0.84346726    -0.83200
C593        C  0.25606257  0.91266616  0.75882177     0.97800
C594        C  0.20581210  0.97073384  0.81246831     1.03700
O595        O  0.26792651  0.93670769  0.74257463    -0.78900
C596        C  0.33024864  0.91878414  0.86007557     1.02000
Fe597      Fe  0.00727931  0.69051422  0.15750662     1.65800
Fe598      Fe  0.06408647  0.74618151  0.16030501     1.73200
Fe599      Fe  0.01453322  0.73639576  0.24106445     1.54400
O600        O  0.46677331  0.73187977  0.22051876    -0.82600
O601        O  0.09139627  0.74542847  0.21190734    -0.80900
O602        O  0.46351554  0.71180341  0.15817600    -0.85100
O603        O  0.99758376  0.66600672  0.20960134    -0.80000
O604        O  0.01121742  0.78252170  0.22382854    -0.81800
O605        O  0.08493012  0.70423747  0.14380069    -0.84500
C606        C  0.00255052  0.66769025  0.24747869     0.96300
C607        C  0.45139391  0.72541544  0.18870195     1.03700
O608        O  0.02892001  0.72435625  0.18645120    -1.13500
O609        O  0.04120667  0.75131111  0.10524273    -0.75900
O610        O  0.01159423  0.70924942  0.10015955    -0.79400
O611        O  0.01530862  0.69127052  0.26377386    -0.80100
C612        C  0.02273163  0.73408669  0.08533514     0.95200
O613        O  0.04948646  0.66613396  0.15148118    -0.78000
O614        O  0.04732463  0.78990736  0.17537872    -0.83200
C615        C  0.08568518  0.74702536  0.24965470     0.97800
C616        C  0.02644406  0.79992441  0.19955494     1.03700
O617        O  0.05855046  0.74404317  0.26459366    -0.78900
C618        C  0.07752653  0.67543139  0.14499785     1.02000
Fe619      Fe  0.24751887  0.56355607  0.15583008     1.65800
Fe620      Fe  0.18791520  0.51135656  0.15695603     1.73200
Fe621      Fe  0.23599363  0.51939669  0.23892427     1.54400
O622        O  0.28235808  0.52582344  0.22684728    -0.82600
O623        O  0.15984230  0.51366889  0.20788517    -0.80900
O624        O  0.28794779  0.53658338  0.16128655    -0.85100
O625        O  0.25782233  0.58701161  0.20903556    -0.80000
O626        O  0.23642339  0.97252363  0.22356780    -0.81800
O627        O  0.16928907  0.55466806  0.14004988    -0.84500
C628        C  0.24872771  0.58641131  0.24577640     0.96300
C629        C  0.29804220  0.52475359  0.19428840     1.03700
O630        O  0.22327108  0.53142910  0.18386944    -1.13500
O631        O  0.20978684  0.00381094  0.09865404    -0.75900
O632        O  0.24294814  0.54595056  0.09795833    -0.79400
O633        O  0.23261366  0.56420367  0.26019723    -0.80100
C634        C  0.23100813  0.52168240  0.08280194     0.95200
O635        O  0.20696090  0.59029926  0.14973671    -0.78000
O636        O  0.20557752  0.96453171  0.16941374    -0.83200
C637        C  0.16508592  0.51039459  0.24560159     0.97800
C638        C  0.22413776  0.95480250  0.19705398     1.03700
O639        O  0.19216461  0.51064587  0.26065379    -0.78900
C640        C  0.17830147  0.58301381  0.14336233     1.02000
C641        C  0.10349322  0.65222215  0.14099482    -0.07100
C642        C  0.13197721  0.65865188  0.16077938    -0.18200
C643        C  0.15688597  0.63714014  0.16147631     0.10100
C644        C  0.15381482  0.60818989  0.14100292    -0.07000
C645        C  0.12540269  0.60208630  0.12052878    -0.18200
C646        C  0.10056626  0.62367828  0.12000894     0.10200
S647        S  0.19123426  0.64645216  0.19141228    -0.33200
S648        S  0.06617424  0.61376758  0.09099925    -0.33200
H649        H  0.06000035  0.64440067  0.07785228     0.28200
H650        H  0.18102512  0.67541092  0.20631055     0.28200
H651        H  0.13425915  0.68034865  0.17721607     0.18800
H652        H  0.12245461  0.58023555  0.10457146     0.18800
C653        C  0.26453725  0.98936774  0.96149309    -0.07100
C654        C  0.23306364  0.98406502  0.97248602    -0.18200
C655        C  0.22258484  0.49528914  0.01411950     0.10100
C656        C  0.24173891  0.51190448  0.04160775    -0.07000
C657        C  0.27209970  0.01493319  0.02679408    -0.18200
C658        C  0.28419493  0.00492999  0.98940518     0.10200
S659        S  0.18150734  0.48828195  0.02298262    -0.33200
S660        S  0.32534103  0.01131515  0.98031248    -0.33200
H661        H  0.33036926  0.98229993  0.96159768     0.28200
H662        H  0.17585673  0.51755177  0.04071775     0.28200
H663        H  0.21744415  0.97272668  0.95116690     0.18800
H664        H  0.28784015  0.02625145  0.04797458     0.18800
C665        C  0.49531896  0.75770145  0.96130835    -0.07100
C666        C  0.99724726  0.78001320  0.99145331    -0.18200
C667        C  0.00777935  0.77378233  0.03096946     0.10100
C668        C  0.01349056  0.74267368  0.04320569    -0.07000
C669        C  0.50743366  0.71967388  0.01398721    -0.18200
C670        C  0.49736719  0.72631991  0.97431937     0.10200
S671        S  0.01134188  0.80630118  0.06508306    -0.33200
S672        S  0.48907693  0.69428075  0.94029584    -0.33200
H673        H  0.49255794  0.67002241  0.96881324     0.28200
H674        H  0.04405987  0.80320950  0.06827763     0.28200
H675        H  0.99279991  0.80397062  0.98262861     0.18800
H676        H  0.50892698  0.69561997  0.02381782     0.18800
C677        C  0.40521284  0.84963809  0.86209771    -0.07100
C678        C  0.37723458  0.84392179  0.84086671    -0.18200
C679        C  0.35270013  0.86578655  0.83956059     0.10100
C680        C  0.35530831  0.89415279  0.86147066    -0.07000
C681        C  0.38343820  0.89989054  0.88271098    -0.18200
C682        C  0.40815123  0.87807931  0.88339254     0.10200
S683        S  0.31944230  0.85767650  0.80709234    -0.33200
S684        S  0.44236453  0.88755025  0.91296828    -0.33200
H685        H  0.44843959  0.85678709  0.92562396     0.28200
H686        H  0.33216757  0.83172639  0.78698995     0.28200
H687        H  0.37502183  0.82242686  0.82394289     0.18800
H688        H  0.38616908  0.92150746  0.89927472     0.18800
C689        C  0.46872013  0.58345105  0.30403042    -0.07100
C690        C  0.99673547  0.59929450  0.32121500    -0.18200
C691        C  0.00793702  0.62713543  0.30399179     0.10100
C692        C  0.99084186  0.64138797  0.27224869    -0.07000
C693        C  0.46068645  0.62613798  0.25691891    -0.18200
C694        C  0.45028376  0.59832641  0.27424426     0.10200
S695        S  0.04571024  0.64102437  0.32016721    -0.33200
S696        S  0.41471804  0.58144634  0.25437310    -0.33200
H697        H  0.40768781  0.56335219  0.28890528     0.28200
H698        H  0.05663680  0.64678893  0.28048308     0.28200
H699        H  0.01075631  0.58739060  0.34386466     0.18800
H700        H  0.44683161  0.63670897  0.23292335     0.18800
C701        C  0.02132650  0.83362972  0.20251896    -0.07100
C702        C  0.04513492  0.85112921  0.22071563    -0.18200
C703        C  0.03922227  0.88102841  0.23524548     0.10100
C704        C  0.00872116  0.89353458  0.23211691    -0.07000
C705        C  0.48798944  0.87723350  0.20987517    -0.18200
C706        C  0.49417479  0.84768994  0.19358776     0.10200
S707        S  0.07094723  0.90130924  0.25997037    -0.33200
S708        S  0.46439494  0.82986142  0.16260665    -0.33200
H709        H  0.48411048  0.80811080  0.14354714     0.28200
H710        H  0.06009924  0.93141124  0.25046193     0.28200
H711        H  0.06790772  0.84069340  0.22604357     0.18800
H712        H  0.46502900  0.88756898  0.20582667     0.18800
C713        C  0.07970556  0.99427987  0.30715376    -0.07100
C714        C  0.10370900  0.97221367  0.31070714    -0.18200
C715        C  0.13303929  0.97786419  0.29328689     0.10100
C716        C  0.13798433  0.00586362  0.27144416    -0.07000
C717        C  0.11531616  0.52943093  0.27228320    -0.18200
C718        C  0.08659192  0.52436540  0.29100301     0.10200
S719        S  0.16165424  0.94705091  0.29569491    -0.33200
S720        S  0.05857416  0.55564072  0.28891519    -0.33200
H721        H  0.04234596  0.54565729  0.32381763     0.28200
H722        H  0.18768756  0.96670097  0.30033996     0.28200
H723        H  0.09883181  0.94948937  0.32373140     0.18800
H724        H  0.11930686  0.55100485  0.25579470     0.18800
C725        C  0.38518535  0.49090700  0.23436127    -0.07100
C726        C  0.38509813  0.51317331  0.20286134    -0.18200
C727        C  0.35698711  0.52238138  0.18433403     0.10100
C728        C  0.32866061  0.50907534  0.19791134    -0.07000
C729        C  0.33189273  0.98362608  0.22281636    -0.18200
C730        C  0.35962403  0.97557645  0.24232091     0.10200
S731        S  0.35830956  0.55347791  0.14757368    -0.33200
S732        S  0.35874155  0.94324313  0.27764305    -0.33200
H733        H  0.39055006  0.93525411  0.27368958     0.28200
H734        H  0.33746471  0.53876120  0.12062127     0.28200
H735        H  0.40658886  0.52520843  0.19494937     0.18800
H736        H  0.31089399  0.97075199  0.23061269     0.18800
C737        C  0.35473942  0.85208961  0.36569477    -0.07100
C738        C  0.38423937  0.84492529  0.34917411    -0.18200
C739        C  0.40864974  0.86674779  0.34829150     0.10100
C740        C  0.40446093  0.89642975  0.36629786    -0.07000
C741        C  0.37525202  0.90311700  0.38433128    -0.18200
C742        C  0.35041210  0.88150339  0.38402169     0.10200
S743        S  0.44329493  0.85593664  0.32035303    -0.33200
S744        S  0.31378853  0.89141264  0.40834487    -0.33200
H745        H  0.32188746  0.92199149  0.41947706     0.28200
H746        H  0.44324956  0.88323409  0.29648113     0.28200
H747        H  0.38785092  0.82257606  0.33466831     0.18800
H748        H  0.37173339  0.92562630  0.39836828     0.18800
C749        C  0.23228982  0.92144783  0.19981835    -0.07100
C750        C  0.26411636  0.91367556  0.20400502    -0.18200
C751        C  0.27332717  0.88434794  0.21830289     0.10100
C752        C  0.25028035  0.86253263  0.22963566    -0.07000
C753        C  0.21861536  0.86929890  0.22237013    -0.18200
C754        C  0.20940940  0.89827852  0.20681332     0.10200
S755        S  0.31449817  0.87702114  0.22503312    -0.33200
S756        S  0.16809797  0.90547715  0.20118368    -0.33200
H757        H  0.17105325  0.91809577  0.16186936     0.28200
H758        H  0.31241824  0.84572540  0.21291234     0.28200
H759        H  0.28186148  0.93110200  0.19791922     0.18800
H760        H  0.20082375  0.85247966  0.23093076     0.18800
C761        C  0.25813169  0.61248393  0.27182645    -0.07100
C762        C  0.23555269  0.62771455  0.29546291    -0.18200
C763        C  0.24213873  0.65674858  0.31275049     0.10100
C764        C  0.27146531  0.67086493  0.30536273    -0.07000
C765        C  0.29504528  0.65398222  0.28589503    -0.18200
C766        C  0.28882402  0.62477698  0.26953015     0.10200
S767        S  0.21234793  0.67476369  0.34342668    -0.33200
S768        S  0.32067591  0.60495322  0.24454214    -0.33200
H769        H  0.31107158  0.57511005  0.25710350     0.28200
H770        H  0.23240296  0.69568495  0.36352123     0.28200
H771        H  0.21228806  0.61787456  0.29856738     0.18800
H772        H  0.31782449  0.66450764  0.28086045     0.18800
C773        C  0.36141870  0.75217447  0.22642854    -0.07100
C774        C  0.36489669  0.72282701  0.20804605    -0.18200
C775        C  0.39320294  0.71436058  0.18931732     0.10100
C776        C  0.41840725  0.73564117  0.18928345    -0.07000
C777        C  0.41327583  0.76609490  0.20332058    -0.18200
C778        C  0.38523413  0.77461396  0.22185868     0.10200
S779        S  0.39723453  0.67499509  0.17135030    -0.33200
S780        S  0.38262372  0.81365639  0.24195359    -0.33200
H781        H  0.35003818  0.81436017  0.24729556     0.28200
H782        H  0.41500769  0.68333520  0.13701013     0.28200
H783        H  0.34645832  0.70560784  0.21111171     0.18800
H784        H  0.43251884  0.78243975  0.20386507     0.18800
C785        C  0.16925384  0.77347070  0.31031168    -0.07100
C786        C  0.16196428  0.74175098  0.30593644    -0.18200
C787        C  0.13341717  0.73210320  0.28953118     0.10100
C788        C  0.11171894  0.75472486  0.27680291    -0.07000
C789        C  0.11780036  0.78638921  0.28406090    -0.18200
C790        C  0.14637431  0.79602793  0.30075122     0.10200
S791        S  0.12734150  0.69093524  0.28188606    -0.33200
S792        S  0.15388137  0.83731366  0.30356791    -0.33200
H793        H  0.17400511  0.83554726  0.33727153     0.28200
H794        H  0.09446238  0.69217693  0.28304702     0.28200
H795        H  0.17972015  0.72454092  0.31199349     0.18800
H796        H  0.10112421  0.80382366  0.27399735     0.18800
C797        C  0.24303137  0.73931896  0.53892273    -0.07100
C798        C  0.24433577  0.77130409  0.52980209    -0.18200
C799        C  0.25592657  0.78218807  0.49239301     0.10100
C800        C  0.26541407  0.76066773  0.46215452    -0.07000
C801        C  0.26439757  0.72867778  0.47155281    -0.18200
C802        C  0.25328428  0.71783850  0.50917253     0.10200
S803        S  0.25980238  0.82380378  0.48638521    -0.33200
S804        S  0.25147121  0.67619683  0.51644713    -0.33200
H805        H  0.22337021  0.67657828  0.53880906     0.28200
H806        H  0.28850377  0.82228737  0.46539601     0.28200
H807        H  0.23749176  0.78808600  0.55271826     0.18800
H808        H  0.27133047  0.71177161  0.44884731     0.18800
C809        C  0.08413688  0.75597937  0.80831670    -0.07100
C810        C  0.08717098  0.72928193  0.78379113    -0.18200
C811        C  0.11560656  0.72098312  0.76646294     0.10100
C812        C  0.14192938  0.73977279  0.77346131    -0.07000
C813        C  0.14017926  0.76411299  0.80191753    -0.18200
C814        C  0.11143325  0.77230881  0.81974206     0.10200
S815        S  0.11618073  0.68778096  0.73284398    -0.33200
S816        S  0.11043073  0.80579406  0.85243045    -0.33200
H817        H  0.09095980  0.79140743  0.88145330     0.28200
H818        H  0.14818572  0.68092437  0.73772619     0.28200
H819        H  0.06654557  0.71624586  0.77493540     0.18800
H820        H  0.16071490  0.77821198  0.80792890     0.18800
C821        C  0.33484973  0.73637309  0.69235643    -0.07100
C822        C  0.35819251  0.71344406  0.69072707    -0.18200
C823        C  0.38718326  0.71818659  0.70978850     0.10100
C824        C  0.39268051  0.74658258  0.73049799    -0.07000
C825        C  0.37096987  0.77073732  0.72734776    -0.18200
C826        C  0.34262218  0.76622383  0.70744352     0.10200
S827        S  0.41463224  0.68617852  0.70906321    -0.33200
S828        S  0.31651307  0.79900673  0.70428783    -0.33200
H829        H  0.30014811  0.78766864  0.67025828     0.28200
H830        H  0.43129696  0.69407616  0.74419974     0.28200
H831        H  0.35281988  0.69073545  0.67827079     0.18800
H832        H  0.37575964  0.79302381  0.74154605     0.18800
C833        C  0.27767705  0.57934368  0.80548159    -0.07100
C834        C  0.30016470  0.59464405  0.78177507    -0.18200
C835        C  0.29354897  0.62325461  0.76343091     0.10100
C836        C  0.26371742  0.63693531  0.76862471    -0.07000
C837        C  0.24226378  0.62314357  0.79548965    -0.18200
C838        C  0.24902915  0.59443650  0.81408484     0.10200
S839        S  0.32349842  0.64030841  0.73177916    -0.33200
S840        S  0.21987576  0.57759065  0.84711743    -0.33200
H841        H  0.24028217  0.55715598  0.86761839     0.28200
H842        H  0.31538676  0.67128778  0.74070039     0.28200
H843        H  0.32216518  0.58315117  0.77496937     0.18800
H844        H  0.21958149  0.63386429  0.80025055     0.18800
C845        C  0.22541191  0.83037851  0.69861720    -0.07100
C846        C  0.25295318  0.84483671  0.68488276    -0.18200
C847        C  0.26356822  0.87256898  0.70269753     0.10100
C848        C  0.24543412  0.88645308  0.73364198    -0.07000
C849        C  0.21600482  0.87382584  0.74323855    -0.18200
C850        C  0.20578013  0.84610851  0.72600842     0.10200
S851        S  0.30151897  0.88702009  0.68770580    -0.33200
S852        S  0.16866727  0.83057228  0.74280592    -0.33200
H853        H  0.16288265  0.81279349  0.70777535     0.28200
H854        H  0.31099063  0.89574829  0.72698108     0.28200
H855        H  0.26756672  0.83311084  0.66283967     0.18800
H856        H  0.20137685  0.88496791  0.76579026     0.18800
C857        C  0.01291928  0.50813169  0.54600157    -0.07100
C858        C  0.03518495  0.50269259  0.51554934    -0.18200
C859        C  0.02603806  0.49650639  0.47542743     0.10100
C860        C  0.49445636  0.99121892  0.46472556    -0.07000
C861        C  0.47224414  0.99742990  0.49501627    -0.18200
C862        C  0.48146193  0.00410910  0.53492059     0.10200
S863        S  0.05677567  0.49301756  0.43806055    -0.33200
S864        S  0.45096077  0.00857938  0.57227088    -0.33200
H865        H  0.46736035  0.99292771  0.60331056     0.28200
H866        H  0.04015065  0.50840675  0.40695780     0.28200
H867        H  0.05990634  0.50431256  0.52277157     0.18800
H868        H  0.44749126  0.99593987  0.48792494     0.18800
C869        C  0.10529268  0.59883070  0.64243329    -0.07100
C870        C  0.09747984  0.62952356  0.63125129    -0.18200
C871        C  0.12041863  0.65291591  0.62700204     0.10100
C872        C  0.15240431  0.64631205  0.63577922    -0.07000
C873        C  0.16029970  0.61542165  0.64547034    -0.18200
C874        C  0.13756640  0.59194641  0.64898840     0.10200
S875        S  0.10706239  0.69032167  0.60891348    -0.33200
S876        S  0.15186445  0.55428596  0.66461659    -0.33200
H877        H  0.12944511  0.55133312  0.69544259     0.28200
H878        H  0.13285300  0.69490866  0.58288430     0.28200
H879        H  0.07324895  0.63533562  0.62502369     0.18800
H880        H  0.18442256  0.60959233  0.65237161     0.18800
C881        C  0.11581090  0.99531639  0.77399874    -0.07100
C882        C  0.12113508  0.96454964  0.78687572    -0.18200
C883        C  0.14943225  0.95628473  0.80564191     0.10100
C884        C  0.17268465  0.97921062  0.81052296    -0.07000
C885        C  0.16584941  0.01041010  0.80133615    -0.18200
C886        C  0.13732802  0.01886338  0.78401067     0.10200
S887        S  0.15701621  0.91616386  0.81906933    -0.33200
S888        S  0.13059531  0.05963411  0.77359229    -0.33200
H889        H  0.09755441  0.55859095  0.77524073     0.28200
H890        H  0.12735340  0.90447645  0.80833925     0.28200
H891        H  0.10397106  0.94675344  0.77985568     0.18800
H892        H  0.18378117  0.02795532  0.80488247     0.18800
C893        C  0.36616918  0.99132854  0.72883193    -0.07100
C894        C  0.36710287  0.52235265  0.70883633    -0.18200
C895        C  0.39555729  0.53133783  0.69080572     0.10100
C896        C  0.42210548  0.51215650  0.69591592    -0.07000
C897        C  0.42043656  0.98010022  0.71542944    -0.18200
C898        C  0.39185300  0.97099546  0.73183044     0.10200
S899        S  0.39752589  0.56889137  0.66644773    -0.33200
S900        S  0.39034470  0.93446339  0.75926396    -0.33200
H901        H  0.35795238  0.92966436  0.75455953     0.28200
H902        H  0.41609267  0.55839847  0.63396255     0.28200
H903        H  0.34746573  0.53834691  0.70822072     0.18800
H904        H  0.44072664  0.96568068  0.72150863     0.18800
C905        C  0.99842271  0.60435160  0.77954761    -0.07100
C906        C  0.02212574  0.62221195  0.79740154    -0.18200
C907        C  0.01548203  0.65181092  0.81297111     0.10100
C908        C  0.48614125  0.66559029  0.80877104    -0.07000
C909        C  0.46177873  0.64616283  0.79593459    -0.18200
C910        C  0.46817129  0.61685122  0.77972148     0.10200
S911        S  0.04708384  0.67319226  0.83611255    -0.33200
S912        S  0.43555836  0.59412822  0.76163856    -0.33200
H913        H  0.44920726  0.56520541  0.77112728     0.28200
H914        H  0.02831046  0.69506716  0.85644466     0.28200
H915        H  0.04612310  0.61396899  0.79691125     0.18800
H916        H  0.43790614  0.65473632  0.79558230     0.18800
C917        C  0.01057286  0.85428016  0.73041876    -0.07100
C918        C  0.48840746  0.87197397  0.70708050    -0.18200
C919        C  0.49515782  0.90176262  0.69181278     0.10100
C920        C  0.02455803  0.91342647  0.69825710    -0.07000
C921        C  0.04844691  0.89475481  0.71428964    -0.18200
C922        C  0.04184103  0.86517888  0.72991880     0.10200
S923        S  0.46480369  0.92217406  0.66452335    -0.33200
S924        S  0.07395792  0.84302094  0.75081065    -0.33200
H925        H  0.06155655  0.81391851  0.73970893     0.28200
H926        H  0.48479326  0.94322383  0.64438031     0.28200
H927        H  0.46481085  0.86285074  0.70463098     0.18800
H928        H  0.07195334  0.90407477  0.71725157     0.18800
Fe929      Fe  0.56771007  0.00314665  0.65906690     1.65800
Fe930      Fe  0.51027885  0.05832307  0.65841230     1.73200
Fe931      Fe  0.51856323  0.01089590  0.74033704     1.54400
O932        O  0.51181197  0.46699586  0.72009970    -0.85800
O933        O  0.50113949  0.08210812  0.71146895    -0.80900
O934        O  0.55114943  0.46048283  0.67605391    -0.85100
O935        O  0.59563155  0.00467981  0.71053057    -0.80000
O936        O  0.97260041  0.01338005  0.72485801    -0.81800
O937        O  0.55244875  0.08291344  0.65220574    -0.84500
C938        C  0.58997368  0.00202907  0.74828247     0.96300
C939        C  0.52888750  0.44996363  0.69782171     1.03700
O940        O  0.53245985  0.02414134  0.68602371    -1.13500
O941        O  0.01168160  0.03873032  0.60005532    -0.75900
O942        O  0.54394230  0.99790597  0.60465318    -0.79400
O943        O  0.56266320  0.00287689  0.76299541    -0.80100
C944        C  0.52448654  0.01493846  0.58582877     0.95200
O945        O  0.58744460  0.04521851  0.64114637    -0.78000
O946        O  0.96636455  0.03531224  0.66396144    -0.83200
C947        C  0.50722612  0.07941750  0.74903399     0.97800
C948        C  0.95584024  0.02011670  0.69436026     1.03700
O949        O  0.52018043  0.05542460  0.76407154    -0.78900
C950        C  0.58038315  0.07391644  0.64432540     1.02000
Fe951      Fe  0.68985580  0.23991523  0.65486113     1.65800
Fe952      Fe  0.74853081  0.18556233  0.65241949     1.73200
Fe953      Fe  0.73848185  0.23159028  0.73662862     1.54400
O954        O  0.73185555  0.27818172  0.72432781    -0.82600
O955        O  0.75410594  0.15773471  0.70314982    -0.80900
O956        O  0.70723991  0.28398486  0.66497154    -0.85100
O957        O  0.66417874  0.24103489  0.70826114    -0.80000
O958        O  0.78361216  0.23649992  0.71801866    -0.81800
O959        O  0.70654441  0.16192910  0.63987452    -0.84500
C960        C  0.66825789  0.23518502  0.74580325     0.96300
C961        C  0.72106851  0.29495691  0.69578394     1.03700
O962        O  0.72564654  0.21888366  0.68134284    -1.13500
O963        O  0.74833968  0.20782165  0.59665342    -0.75900
O964        O  0.71014540  0.24269652  0.59765276    -0.79400
O965        O  0.69455085  0.22833337  0.76096032    -0.80100
C966        C  0.73253443  0.22913018  0.57967083     0.95200
O967        O  0.66878214  0.19778895  0.64272614    -0.78000
O968        O  0.79188535  0.20660304  0.66341650    -0.83200
C969        C  0.75411709  0.16150144  0.74132596     0.97800
C970        C  0.80113220  0.22606083  0.69011949     1.03700
O971        O  0.74733305  0.18714211  0.75797301    -0.78900
C972        C  0.67763242  0.16978664  0.63811421     1.02000
Fe973      Fe  0.75834805  0.31453124  0.34556666     1.65800
Fe974      Fe  0.81638046  0.25912967  0.34547279     1.73200
Fe975      Fe  0.76715018  0.26621315  0.26349199     1.54400
O976        O  0.72129147  0.26651565  0.27936580    -0.82600
O977        O  0.84318859  0.25730477  0.29303909    -0.80900
O978        O  0.71417667  0.29467910  0.33525496    -0.85100
O979        O  0.75486093  0.34096577  0.29316047    -0.80000
O980        O  0.76790699  0.22031150  0.28080099    -0.81800
O981        O  0.83765454  0.30114104  0.35835462    -0.84500
C982        C  0.75740349  0.33675821  0.25515045     0.96300
C983        C  0.70394676  0.27685110  0.30735569     1.03700
O984        O  0.78075943  0.28007182  0.31807461    -1.13500
O985        O  0.79458848  0.25685222  0.40178910    -0.75900
O986        O  0.75756084  0.29308810  0.40196552    -0.79400
O987        O  0.76381151  0.31059941  0.23949336    -0.80100
C988        C  0.77239815  0.27118988  0.41925491     0.95200
O989        O  0.80049601  0.33779688  0.35825292    -0.78000
O990        O  0.79920712  0.21501790  0.33486214    -0.83200
C991        C  0.83811587  0.25846393  0.25502467     0.97800
C992        C  0.78080866  0.20403577  0.30829091     1.03700
O993        O  0.81135430  0.26295330  0.23978419    -0.78900
C994        C  0.82910091  0.32940237  0.36152377     1.02000
Fe995      Fe  0.99723976  0.44196229  0.35139913     1.65800
Fe996      Fe  0.93711716  0.49483982  0.35232789     1.73200
Fe997      Fe  0.98364788  0.48793338  0.26807359     1.54400
O998        O  0.52905342  0.49159063  0.28407043    -0.82600
O999        O  0.90998463  0.49620955  0.30010106    -0.80900
O1000       O  0.53863149  0.46171487  0.33855228    -0.85100
O1001       O  0.50111219  0.41328291  0.29889001    -0.80000
O1002       O  0.97805804  0.03548704  0.28021622    -0.81800
O1003       O  0.91712530  0.45187104  0.36481595    -0.84500
C1004       C  0.00094543  0.41825549  0.26275633     0.96300
C1005       C  0.54716595  0.48120963  0.31142544     1.03700
O1006       O  0.97265836  0.47483471  0.32388923    -1.13500
O1007       O  0.95891241  0.99715082  0.40534963    -0.75900
O1008       O  0.99791218  0.46351813  0.40680369    -0.79400
O1009       O  0.99238095  0.44351479  0.24615970    -0.80100
C1010       C  0.98285961  0.48475882  0.42455054     0.95200
O1011       O  0.95619580  0.41704986  0.36406386    -0.78000
O1012       O  0.95214854  0.03965340  0.33888402    -0.83200
C1013       C  0.91331716  0.49085330  0.26235145     0.97800
C1014       C  0.96669090  0.05150538  0.30896522     1.03700
O1015       O  0.93924337  0.48425110  0.24615529    -0.78900
C1016       C  0.92709588  0.42393254  0.36625492     1.02000
Fe1017     Fe  0.94057705  0.25258514  0.84439883     1.65800
Fe1018     Fe  0.49913195  0.30606295  0.84717871     1.73200
Fe1019     Fe  0.99007519  0.26095943  0.76385457     1.54400
O1020       O  0.99416310  0.21531677  0.78243400    -0.82600
O1021       O  0.00952612  0.33048586  0.79316486    -0.80900
O1022       O  0.95653228  0.20838602  0.82905623    -0.85100
O1023       O  0.91317532  0.25450089  0.79280907    -0.80000
O1024       O  0.53493899  0.26527698  0.77718931    -0.81800
O1025       O  0.95690745  0.33260716  0.85091354    -0.84500
C1026       C  0.91901802  0.25184920  0.75516778     0.96300
C1027       C  0.97828957  0.19813795  0.80626656     1.03700
O1028       O  0.97595553  0.27351380  0.81808403    -1.13500
O1029       O  0.49471024  0.28695969  0.90432843    -0.75900
O1030       O  0.96376326  0.24702322  0.89924567    -0.79400
O1031       O  0.94635186  0.25278010  0.74070193    -0.80100
C1032       C  0.98210271  0.26448029  0.91909644     0.95200
O1033       O  0.92101477  0.29518772  0.86116354    -0.78000
O1034       O  0.54080065  0.28091654  0.84114089    -0.83200
C1035       C  0.00223756  0.32885086  0.75585453     0.97800
C1036       C  0.55125423  0.26804631  0.80905316     1.03700
O1037       O  0.98781655  0.30572198  0.74102783    -0.78900
C1038       C  0.92882404  0.32388611  0.85859438     1.02000
Fe1039     Fe  0.81736392  0.48827413  0.84597842     1.65800
Fe1040     Fe  0.75829752  0.43457271  0.84981010     1.73200
Fe1041     Fe  0.76675642  0.48089314  0.76558560     1.54400
O1042       O  0.76612852  0.02729357  0.78739019    -0.82600
O1043       O  0.75032007  0.40879717  0.79863746    -0.80900
O1044       O  0.80409866  0.03387457  0.83354826    -0.85100
O1045       O  0.84330205  0.48714393  0.79342514    -0.80000
O1046       O  0.72099413  0.48108177  0.78324401    -0.81800
O1047       O  0.79988416  0.40979989  0.85798700    -0.84500
C1048       C  0.83798167  0.48587404  0.75555722     0.96300
C1049       C  0.78285031  0.04439527  0.81003272     1.03700
O1050       O  0.78085469  0.46795211  0.82036295    -1.13500
O1051       O  0.76096232  0.45535524  0.90602851    -0.75900
O1052       O  0.79596891  0.49326210  0.90206426    -0.79400
O1053       O  0.81084738  0.48317724  0.74059824    -0.80100
C1054       C  0.77489082  0.47856166  0.92126413     0.95200
O1055       O  0.83778079  0.44552144  0.86057501    -0.78000
O1056       O  0.71506765  0.45630387  0.84260819    -0.83200
C1057       C  0.75319261  0.41150731  0.76050206     0.97800
C1058       C  0.70443348  0.47249758  0.81320103     1.03700
O1059       O  0.76276008  0.43620549  0.74343520    -0.78900
C1060       C  0.82874184  0.41719808  0.86079553     1.02000
Fe1061     Fe  0.50475563  0.18905848  0.15825440     1.65800
Fe1062     Fe  0.56163593  0.24467758  0.15870838     1.73200
Fe1063     Fe  0.51291697  0.23636580  0.24072940     1.54400
O1064       O  0.96823096  0.22891071  0.22143434    -0.82600
O1065       O  0.58937763  0.24368438  0.20995949    -0.80900
O1066       O  0.96565986  0.21329260  0.15687768    -0.85100
O1067       O  0.49632296  0.16487358  0.21099527    -0.80000
O1068       O  0.51043942  0.28221848  0.22296097    -0.81800
O1069       O  0.58208506  0.20274936  0.14198823    -0.84500
C1070       C  0.50101610  0.16740451  0.24885502     0.96300
C1071       C  0.95328001  0.22488469  0.18859900     1.03700
O1072       O  0.52663766  0.22335269  0.18605659    -1.13500
O1073       O  0.53817932  0.24929623  0.10407747    -0.75900
O1074       O  0.50777978  0.20767707  0.10051257    -0.79400
O1075       O  0.51275584  0.19166320  0.26464171    -0.80100
C1076       C  0.51901843  0.23225517  0.08496084     0.95200
O1077       O  0.54703448  0.16470707  0.15137540    -0.78000
O1078       O  0.54553894  0.28872739  0.17320342    -0.83200
C1079       C  0.58446932  0.24481927  0.24796950     0.97800
C1080       C  0.52526689  0.29917244  0.19786971     1.03700
O1081       O  0.55745274  0.24287660  0.26363060    -0.78900
C1082       C  0.57492996  0.17393702  0.14377878     1.02000
Fe1083     Fe  0.74688324  0.06502113  0.15620565     1.65800
Fe1084     Fe  0.68882485  0.01157091  0.15820001     1.73200
Fe1085     Fe  0.73688741  0.02046111  0.23951414     1.54400
O1086       O  0.78298757  0.02730361  0.22601055    -0.82600
O1087       O  0.66065297  0.01480610  0.20868948    -0.80900
O1088       O  0.78759623  0.03870022  0.16028203    -0.85100
O1089       O  0.75835151  0.08818855  0.20943463    -0.80000
O1090       O  0.73623342  0.47330587  0.22217914    -0.81800
O1091       O  0.66988566  0.05454040  0.13951023    -0.84500
C1092       C  0.74978976  0.08730452  0.24640160     0.96300
C1093       C  0.79834250  0.02713169  0.19308221     1.03700
O1094       O  0.72368300  0.03236110  0.18474595    -1.13500
O1095       O  0.71043331  0.50558054  0.09798911    -0.75900
O1096       O  0.74102437  0.04780394  0.09794630    -0.79400
O1097       O  0.73339547  0.06526209  0.26069750    -0.80100
C1098       C  0.73109367  0.02218507  0.08399442     0.95200
O1099       O  0.70597503  0.09111773  0.15168196    -0.78000
O1100       O  0.70598822  0.46527918  0.16751204    -0.83200
C1101       C  0.66589694  0.01130736  0.24636985     0.97800
C1102       C  0.72459708  0.45558799  0.19515340     1.03700
O1103       O  0.69300959  0.01138237  0.26157845    -0.78900
C1104       C  0.67779700  0.08318254  0.14362246     1.02000
C1105       C  0.60117197  0.15086716  0.13917005    -0.07100
C1106       C  0.63140364  0.16010227  0.15131872    -0.18200
C1107       C  0.65690902  0.13929751  0.15226105     0.10100
C1108       C  0.65260832  0.10779941  0.14003038    -0.07000
C1109       C  0.62252746  0.09898718  0.12620550    -0.18200
C1110       C  0.59718094  0.11999060  0.12521575     0.10200
S1111       S  0.69406057  0.15369327  0.17114899    -0.33200
S1112       S  0.56074586  0.10613731  0.10434271    -0.33200
H1113       H  0.55352061  0.13426782  0.08429327     0.28200
H1114       H  0.68488619  0.18459689  0.17883479     0.28200
H1115       H  0.63488403  0.18376231  0.16159242     0.18800
H1116       H  0.61852789  0.07536751  0.11593365     0.18800
C1117       C  0.76467955  0.48946072  0.96216353    -0.07100
C1118       C  0.73314472  0.48493795  0.97333092    -0.18200
C1119       C  0.72645185  0.98857758  0.02004881     0.10100
C1120       C  0.74171390  0.01213192  0.04268601    -0.07000
C1121       C  0.77265886  0.51652804  0.02637555    -0.18200
C1122       C  0.78457853  0.50557809  0.98934964     0.10200
S1123       S  0.68953691  0.97153915  0.03481216    -0.33200
S1124       S  0.82573499  0.51159055  0.97989943    -0.33200
H1125       H  0.83071344  0.48161583  0.96391330     0.28200
H1126       H  0.67590465  0.00024245  0.04546227     0.28200
H1127       H  0.71724462  0.47345561  0.95249425     0.18800
H1128       H  0.78851435  0.52811537  0.04716758     0.18800
C1129       C  0.99190484  0.25592914  0.96116039    -0.07100
C1130       C  0.49837467  0.27860434  0.98920197    -0.18200
C1131       C  0.50778144  0.27219161  0.02924535     0.10100
C1132       C  0.50919197  0.24090866  0.04291970    -0.07000
C1133       C  0.00652033  0.21850575  0.01368182    -0.18200
C1134       C  0.99537395  0.22467477  0.97426713     0.10200
S1135       S  0.51660365  0.30450350  0.06252787    -0.33200
S1136       S  0.98723974  0.19226882  0.94079701    -0.33200
H1137       H  0.99492411  0.16819282  0.96815975     0.28200
H1138       H  0.50334392  0.32803542  0.03810935     0.28200
H1139       H  0.49772979  0.30255806  0.97877970     0.18800
H1140       H  0.00908846  0.19454281  0.02349019     0.18800
C1141       C  0.90323999  0.34758145  0.86258543    -0.07100
C1142       C  0.87382227  0.34053522  0.84561701    -0.18200
C1143       C  0.84904988  0.36221064  0.84519740     0.10100
C1144       C  0.85326717  0.39205316  0.86297309    -0.07000
C1145       C  0.88266044  0.39888863  0.88046046    -0.18200
C1146       C  0.90732461  0.37709485  0.88084532     0.10200
S1147       S  0.81327776  0.35185919  0.81886328    -0.33200
S1148       S  0.94301945  0.38805964  0.90631717    -0.33200
H1149       H  0.94906168  0.35819646  0.92231343     0.28200
H1150       H  0.82202194  0.32157462  0.80720254     0.28200
H1151       H  0.87061136  0.31814713  0.83112246     0.18800
H1152       H  0.88649067  0.42145677  0.89427211     0.18800
C1153       C  0.96969629  0.08545053  0.30503711    -0.07100
C1154       C  0.49806739  0.09892348  0.32259972    -0.18200
C1155       C  0.50827806  0.12715971  0.30537178     0.10100
C1156       C  0.49020774  0.14117788  0.27434424    -0.07000
C1157       C  0.96186546  0.12869622  0.25891745    -0.18200
C1158       C  0.95102001  0.10110037  0.27627654     0.10200
S1159       S  0.54585243  0.14208337  0.32088995    -0.33200
S1160       S  0.91441060  0.08553249  0.25792065    -0.33200
H1161       H  0.90772523  0.06765960  0.29277075     0.28200
H1162       H  0.55583186  0.14968173  0.28132755     0.28200
H1163       H  0.51284006  0.08712175  0.34451214     0.18800
H1164       H  0.94790472  0.13968017  0.23535043     0.18800
C1165       C  0.52059057  0.33285074  0.20090379    -0.07100
C1166       C  0.54455651  0.34980302  0.21954688    -0.18200
C1167       C  0.53862238  0.37901397  0.23617552     0.10100
C1168       C  0.50797880  0.39129057  0.23474468    -0.07000
C1169       C  0.98804938  0.37700617  0.21262011    -0.18200
C1170       C  0.99424387  0.34783080  0.19525239     0.10200
S1171       S  0.57061144  0.39867133  0.26098900    -0.33200
S1172       S  0.96445669  0.33094490  0.16340416    -0.33200
H1173       H  0.98391288  0.30913435  0.14404869     0.28200
H1174       H  0.55968798  0.42893439  0.25260259     0.28200
H1175       H  0.56742488  0.33928715  0.22382759     0.18800
H1176       H  0.96524075  0.38762105  0.20840289     0.18800
C1177       C  0.57996487  0.49124007  0.30837623    -0.07100
C1178       C  0.60317144  0.46822743  0.30712645    -0.18200
C1179       C  0.63169497  0.47396071  0.28760130     0.10100
C1180       C  0.63687329  0.50333781  0.26917394    -0.07000
C1181       C  0.61556442  0.02913500  0.27223557    -0.18200
C1182       C  0.58691250  0.02361013  0.29082121     0.10200
S1183       S  0.65875440  0.44185090  0.28338808    -0.33200
S1184       S  0.55823988  0.05427461  0.28818254    -0.33200
H1185       H  0.54191376  0.04402325  0.32288028     0.28200
H1186       H  0.68625370  0.45974110  0.28291146     0.28200
H1187       H  0.59805083  0.44492531  0.31803953     0.18800
H1188       H  0.61917069  0.05072123  0.25562461     0.18800
C1189       C  0.88582464  0.99485956  0.23253459    -0.07100
C1190       C  0.88537989  0.01870982  0.20310466    -0.18200
C1191       C  0.85724490  0.02778375  0.18462899     0.10100
C1192       C  0.82935277  0.01247434  0.19591472    -0.07000
C1193       C  0.83078106  0.48515366  0.22575704    -0.18200
C1194       C  0.85858866  0.47646085  0.24448820     0.10200
S1195       S  0.85770816  0.06136356  0.15171659    -0.33200
S1196       S  0.85726766  0.44517572  0.28135632    -0.33200
H1197       H  0.88864810  0.43587590  0.27663626     0.28200
H1198       H  0.83758295  0.04799997  0.12275054     0.28200
H1199       H  0.90650420  0.03193493  0.19694097     0.18800
H1200       H  0.80956048  0.47318457  0.23484430     0.18800
C1201       C  0.85433806  0.35325320  0.36649326    -0.07100
C1202       C  0.88262727  0.34847149  0.34555931    -0.18200
C1203       C  0.90644729  0.37088259  0.34503908     0.10100
C1204       C  0.90328397  0.39845323  0.36815100    -0.07000
C1205       C  0.87541957  0.40285949  0.39044076    -0.18200
C1206       C  0.85096261  0.38066146  0.38981111     0.10200
S1207       S  0.93876196  0.36410196  0.31088896    -0.33200
S1208       S  0.81629835  0.38690018  0.42019068    -0.33200
H1209       H  0.82510957  0.41600614  0.43607578     0.28200
H1210       H  0.93775933  0.39423556  0.29386704     0.28200
H1211       H  0.88563196  0.32761223  0.32758968     0.18800
H1212       H  0.87274849  0.42392041  0.40813098     0.18800
C1213       C  0.73365193  0.42233589  0.19753487    -0.07100
C1214       C  0.76518973  0.41557449  0.20618916    -0.18200
C1215       C  0.77422040  0.38646423  0.22131173     0.10100
C1216       C  0.75125789  0.36359569  0.22846607    -0.07000
C1217       C  0.72027504  0.36912243  0.21612387    -0.18200
C1218       C  0.71134753  0.39805904  0.19993952     0.10200
S1219       S  0.81485547  0.38049775  0.23382989    -0.33200
S1220       S  0.67073541  0.40355275  0.18715092    -0.33200
H1221       H  0.67731488  0.41670532  0.14886476     0.28200
H1222       H  0.81443706  0.34837476  0.22576788     0.28200
H1223       H  0.78269213  0.43364669  0.20304736     0.18800
H1224       H  0.70258194  0.35140708  0.22126662     0.18800
C1225       C  0.76008122  0.11277211  0.27291119    -0.07100
C1226       C  0.73781112  0.12900571  0.29587165    -0.18200
C1227       C  0.74530863  0.15783782  0.31305518     0.10100
C1228       C  0.77539516  0.17052427  0.30668054    -0.07000
C1229       C  0.79858340  0.15262649  0.28801939    -0.18200
C1230       C  0.79133124  0.12370220  0.27145665     0.10200
S1231       S  0.71522816  0.17825960  0.34065788    -0.33200
S1232       S  0.82253862  0.10256717  0.24703271    -0.33200
H1233       H  0.81191389  0.07332550  0.26053666     0.28200
H1234       H  0.73552316  0.19825457  0.36191594     0.28200
H1235       H  0.71402809  0.12030857  0.29806919     0.18800
H1236       H  0.82184009  0.16224170  0.28354141     0.18800
C1237       C  0.86442870  0.25313110  0.22737026    -0.07100
C1238       C  0.86741726  0.22352389  0.20961461    -0.18200
C1239       C  0.89532824  0.21457108  0.19048599     0.10100
C1240       C  0.92065883  0.23561195  0.18951680    -0.07000
C1241       C  0.91624594  0.26613112  0.20363228    -0.18200
C1242       C  0.88847774  0.27521799  0.22235415     0.10200
S1243       S  0.89878323  0.17494587  0.17322015    -0.33200
S1244       S  0.88652015  0.31450912  0.24161609    -0.33200
H1245       H  0.85449668  0.31509857  0.25096950     0.28200
H1246       H  0.91773738  0.18232897  0.13959929     0.28200
H1247       H  0.84874823  0.20659014  0.21313813     0.18800
H1248       H  0.93585541  0.28206088  0.20401342     0.18800
C1249       C  0.67081660  0.26651172  0.30540656    -0.07100
C1250       C  0.66549237  0.23647496  0.28968073    -0.18200
C1251       C  0.63632382  0.22759175  0.27474168     0.10100
C1252       C  0.61171135  0.24929088  0.27457417    -0.07000
C1253       C  0.61577155  0.27816984  0.29395794    -0.18200
C1254       C  0.64503486  0.28685260  0.30992233     0.10200
S1255       S  0.63253867  0.18897669  0.25373677    -0.33200
S1256       S  0.64887026  0.32531465  0.33090823    -0.33200
H1257       H  0.66457197  0.31481489  0.36598625     0.28200
H1258       H  0.59993009  0.18658279  0.25887642     0.28200
H1259       H  0.68484802  0.22042354  0.28623471     0.18800
H1260       H  0.59672095  0.29486294  0.29412304     0.18800
C1261       C  0.74126939  0.23921106  0.53776537    -0.07100
C1262       C  0.74109839  0.27119053  0.52834774    -0.18200
C1263       C  0.75194172  0.28237856  0.49070982     0.10100
C1264       C  0.76275408  0.26119003  0.46088588    -0.07000
C1265       C  0.76267091  0.22918714  0.47022263    -0.18200
C1266       C  0.75171570  0.21800961  0.50778100     0.10200
S1267       S  0.75293766  0.32406183  0.48366143    -0.33200
S1268       S  0.75003501  0.17631756  0.51456027    -0.33200
H1269       H  0.72207232  0.17650359  0.53723922     0.28200
H1270       H  0.78144599  0.32427051  0.46217013     0.28200
H1271       H  0.73356012  0.28778480  0.55111808     0.18800
H1272       H  0.77017691  0.21256098  0.44747013     0.18800
C1273       C  0.58306933  0.25465403  0.80599842    -0.07100
C1274       C  0.58581679  0.22795588  0.78140049    -0.18200
C1275       C  0.61432261  0.21901074  0.76479190     0.10100
C1276       C  0.64097585  0.23714558  0.77259043    -0.07000
C1277       C  0.63935525  0.26146838  0.80104605    -0.18200
C1278       C  0.61054629  0.27045035  0.81794331     0.10200
S1279       S  0.61469792  0.18582151  0.73114846    -0.33200
S1280       S  0.60980098  0.30447329  0.84969435    -0.33200
H1281       H  0.59042405  0.29061701  0.87924020     0.28200
H1282       H  0.64657770  0.17855207  0.73640197     0.28200
H1283       H  0.56503039  0.21534930  0.77210987     0.18800
H1284       H  0.66011816  0.27508332  0.80760232     0.18800
C1285       C  0.83407652  0.23621347  0.69183573    -0.07100
C1286       C  0.85771093  0.21360508  0.68966886    -0.18200
C1287       C  0.88717314  0.21917483  0.70692995     0.10100
C1288       C  0.89267363  0.24764341  0.72724550    -0.07000
C1289       C  0.87043424  0.27139078  0.72507468    -0.18200
C1290       C  0.84159104  0.26625201  0.70658851     0.10200
S1291       S  0.91514439  0.18776852  0.70679945    -0.33200
S1292       S  0.81454281  0.29838133  0.70524010    -0.33200
H1293       H  0.79750021  0.28701536  0.67179140     0.28200
H1294       H  0.94074738  0.20669117  0.69617322     0.28200
H1295       H  0.85244299  0.19068311  0.67783503     0.18800
H1296       H  0.87505859  0.29365057  0.73940784     0.18800
C1297       C  0.77881994  0.07814184  0.80498152    -0.07100
C1298       C  0.80115668  0.09351648  0.78111213    -0.18200
C1299       C  0.79420564  0.12191319  0.76236625     0.10100
C1300       C  0.76409677  0.13510985  0.76700258    -0.07000
C1301       C  0.74282560  0.12132284  0.79414335    -0.18200
C1302       C  0.75002427  0.09297928  0.81339180     0.10200
S1303       S  0.82425201  0.13952923  0.73141153    -0.33200
S1304       S  0.72129218  0.07619406  0.84710844    -0.33200
H1305       H  0.74219244  0.05655152  0.86810367     0.28200
H1306       H  0.81551313  0.17036043  0.74024774     0.28200
H1307       H  0.82334501  0.08227389  0.77462488     0.18800
H1308       H  0.72002169  0.13181849  0.79879205     0.18800
C1309       C  0.72365027  0.32867555  0.70086010    -0.07100
C1310       C  0.75042309  0.34401181  0.68625889    -0.18200
C1311       C  0.76052920  0.37195130  0.70395419     0.10100
C1312       C  0.74279343  0.38497351  0.73589699    -0.07000
C1313       C  0.71410213  0.37134252  0.74676829    -0.18200
C1314       C  0.70425895  0.34355037  0.72936718     0.10200
S1315       S  0.79747335  0.38791681  0.68743638    -0.33200
S1316       S  0.66779183  0.32704109  0.74685314    -0.33200
H1317       H  0.66181002  0.30950837  0.71166605     0.28200
H1318       H  0.80774777  0.39636640  0.72651157     0.28200
H1319       H  0.76488635  0.33289505  0.66350625     0.18800
H1320       H  0.69971281  0.38188985  0.77014473     0.18800
C1321       C  0.51368296  0.00558555  0.54491116    -0.07100
C1322       C  0.53592402  0.99936629  0.51472051    -0.18200
C1323       C  0.52675187  0.99270279  0.47477691     0.10100
C1324       C  0.99374598  0.49459856  0.46542767    -0.07000
C1325       C  0.97152085  0.50038225  0.49585384    -0.18200
C1326       C  0.98070355  0.50665953  0.53590555     0.10200
S1327       S  0.55748209  0.98822865  0.43761849    -0.33200
S1328       S  0.95013140  0.51047607  0.57328620    -0.33200
H1329       H  0.96650319  0.49446926  0.60404924     0.28200
H1330       H  0.54146748  0.00437118  0.40663071     0.28200
H1331       H  0.56065609  0.00083596  0.52195516     0.18800
H1332       H  0.94677641  0.49868548  0.48879759     0.18800
C1333       C  0.60599724  0.09765420  0.63922819    -0.07100
C1334       C  0.59804711  0.12850550  0.62912866    -0.18200
C1335       C  0.62089053  0.15193105  0.62520640     0.10100
C1336       C  0.65294368  0.14513304  0.63323934    -0.07000
C1337       C  0.66101179  0.11405136  0.64149973    -0.18200
C1338       C  0.63832473  0.09054004  0.64468433     0.10200
S1339       S  0.60722134  0.18967453  0.60874571    -0.33200
S1340       S  0.65273996  0.05254200  0.65862293    -0.33200
H1341       H  0.63192833  0.04984659  0.69138003     0.28200
H1342       H  0.63254446  0.19472986  0.58209552     0.28200
H1343       H  0.57374340  0.13447210  0.62366983     0.18800
H1344       H  0.68521829  0.10807537  0.64763865     0.18800
C1345       C  0.61395495  0.49860278  0.77635284    -0.07100
C1346       C  0.61826456  0.46860228  0.79264919    -0.18200
C1347       C  0.64690599  0.46011757  0.81054987     0.10100
C1348       C  0.67141321  0.48212181  0.81151926    -0.07000
C1349       C  0.66544567  0.51304101  0.79967835    -0.18200
C1350       C  0.63678864  0.52164604  0.78282142     0.10200
S1351       S  0.65319146  0.42041536  0.82700345    -0.33200
S1352       S  0.63129888  0.56191155  0.76850206    -0.33200
H1353       H  0.59825246  0.05862822  0.77391562     0.28200
H1354       H  0.62198667  0.41042393  0.82246100     0.28200
H1355       H  0.60018178  0.45119832  0.78831525     0.18800
H1356       H  0.68409955  0.53008450  0.80066075     0.18800
C1357       C  0.86492789  0.48893698  0.72833439    -0.07100
C1358       C  0.86794737  0.01807771  0.70730582    -0.18200
C1359       C  0.89652629  0.02663938  0.68921375     0.10100
C1360       C  0.92333576  0.00822045  0.69667989    -0.07000
C1361       C  0.91986886  0.47899128  0.71825503    -0.18200
C1362       C  0.89098412  0.46931848  0.73315585     0.10200
S1363       S  0.89804353  0.06282845  0.66151193    -0.33200
S1364       S  0.88950321  0.43326313  0.76168073    -0.33200
H1365       H  0.85730220  0.42780853  0.75603425     0.28200
H1366       H  0.91658702  0.05081758  0.62998849     0.28200
H1367       H  0.84807071  0.03369212  0.70492053     0.18800
H1368       H  0.94020754  0.46499363  0.72558884     0.18800
C1369       C  0.49769345  0.10536793  0.77530232    -0.07100
C1370       C  0.52063723  0.12323748  0.79477024    -0.18200
C1371       C  0.51332928  0.15282518  0.80996867     0.10100
C1372       C  0.98405999  0.16444278  0.80444833    -0.07000
C1373       C  0.96028421  0.14591809  0.78810429    -0.18200
C1374       C  0.96688138  0.11629743  0.77309665     0.10200
S1375       S  0.54387549  0.17431284  0.83521533    -0.33200
S1376       S  0.93501318  0.09467020  0.75093910    -0.33200
H1377       H  0.94701096  0.06524426  0.76154613     0.28200
H1378       H  0.52406338  0.19519663  0.85571978     0.28200
H1379       H  0.54461815  0.11498980  0.79595532     0.18800
H1380       H  0.93691018  0.15537730  0.78442843     0.18800
C1381       C  0.51129860  0.35674333  0.73236668    -0.07100
C1382       C  0.98850194  0.37226704  0.70939082    -0.18200
C1383       C  0.99535285  0.40182341  0.69355626     0.10100
C1384       C  0.52411591  0.41620838  0.70073919    -0.07000
C1385       C  0.54794288  0.39883732  0.71918921    -0.18200
C1386       C  0.54193529  0.36917720  0.73476939     0.10200
S1387       S  0.96454114  0.42268125  0.66776707    -0.33200
S1388       S  0.57393539  0.34900031  0.75916357    -0.33200
H1389       H  0.56354815  0.31902402  0.74854660     0.28200
H1390       H  0.98423883  0.44333708  0.64646766     0.28200
H1391       H  0.96468908  0.36356161  0.70806752     0.18800
H1392       H  0.57078260  0.40926642  0.72404626     0.18800
Fe1393     Fe  0.56630319  0.50467744  0.65913763     1.65800
Fe1394     Fe  0.50915517  0.56008614  0.65809885     1.73200
Fe1395     Fe  0.51662993  0.51206066  0.73966409     1.54400
O1396       O  0.51470481  0.96544547  0.72144003    -0.85800
O1397       O  0.50118593  0.58412711  0.71161792    -0.80900
O1398       O  0.55203904  0.95904866  0.67449162    -0.85100
O1399       O  0.59381685  0.50776457  0.71076582    -0.80000
O1400       O  0.97233689  0.51394760  0.72808677    -0.81800
O1401       O  0.55155713  0.58434105  0.65097309    -0.84500
C1402       C  0.58784417  0.50369409  0.74823116     0.96300
C1403       C  0.53046846  0.94857524  0.69734554     1.03700
O1404       O  0.53088900  0.52562530  0.68561364    -1.13500
O1405       O  0.01209417  0.54076154  0.60352611    -0.75900
O1406       O  0.54245017  0.49878249  0.60472878    -0.79400
O1407       O  0.56037849  0.50271292  0.76233936    -0.80100
C1408       C  0.52297354  0.51581767  0.58578814     0.95200
O1409       O  0.58612432  0.54643590  0.63983877    -0.78000
O1410       O  0.96661324  0.53564581  0.66697537    -0.83200
C1411       C  0.50762147  0.58088402  0.74910436     0.97800
C1412       C  0.95590826  0.52033778  0.69714045     1.03700
O1413       O  0.51956283  0.55625087  0.76373705    -0.78900
C1414       C  0.57935037  0.57520946  0.64258767     1.02000
Fe1415     Fe  0.69000546  0.74128201  0.65636413     1.65800
Fe1416     Fe  0.74807195  0.68623686  0.65156801     1.73200
Fe1417     Fe  0.74010898  0.73170870  0.73668849     1.54400
O1418       O  0.73610556  0.77848003  0.72443661    -0.82600
O1419       O  0.75482481  0.65842181  0.70195177    -0.80900
O1420       O  0.70713324  0.78544232  0.66868514    -0.85100
O1421       O  0.66461888  0.74073512  0.70964323    -0.80000
O1422       O  0.78544591  0.73438288  0.71765665    -0.81800
O1423       O  0.70577894  0.66284715  0.64041866    -0.84500
C1424       C  0.66944442  0.73622629  0.74728712     0.96300
C1425       C  0.72353820  0.79580999  0.69779942     1.03700
O1426       O  0.72605317  0.71967463  0.68158546    -1.13500
O1427       O  0.74634578  0.70853037  0.59608669    -0.75900
O1428       O  0.71022689  0.74551278  0.59956904    -0.79400
O1429       O  0.69623657  0.73097020  0.76212301    -0.80100
C1430       C  0.73128119  0.73090499  0.58039805     0.95200
O1431       O  0.66865949  0.69935251  0.64195567    -0.78000
O1432       O  0.79195923  0.70674873  0.66072235    -0.83200
C1433       C  0.75401439  0.66150937  0.74021260     0.97800
C1434       C  0.80223086  0.72465623  0.68857819     1.03700
O1435       O  0.74650901  0.68672398  0.75745043    -0.78900
C1436       C  0.67705210  0.67112535  0.63768118     1.02000
Fe1437     Fe  0.75567915  0.81545902  0.34675698     1.65800
Fe1438     Fe  0.81285898  0.75992783  0.34641263     1.73200
Fe1439     Fe  0.76398338  0.76777744  0.26500071     1.54400
O1440       O  0.71764336  0.77342631  0.27820530    -0.82600
O1441       O  0.84090676  0.76232984  0.29560912    -0.80900
O1442       O  0.71225044  0.79364668  0.34015669    -0.85100
O1443       O  0.74894566  0.84011797  0.29343647    -0.80000
O1444       O  0.75939876  0.72256597  0.28412019    -0.81800
O1445       O  0.83298541  0.80173937  0.36457976    -0.84500
C1446       C  0.75579762  0.83711611  0.25612257     0.96300
C1447       C  0.70124387  0.77979466  0.30910936     1.03700
O1448       O  0.77767937  0.78108638  0.31938037    -1.13500
O1449       O  0.78895289  0.75453979  0.40048937    -0.75900
O1450       O  0.75807127  0.79599974  0.40426000    -0.79400
O1451       O  0.76652160  0.81212556  0.24115454    -0.80100
C1452       C  0.76988321  0.77163256  0.41977147     0.95200
O1453       O  0.79782016  0.83954948  0.35495872    -0.78000
O1454       O  0.79732245  0.71575914  0.33022791    -0.83200
C1455       C  0.83559542  0.75912163  0.25793189     0.97800
C1456       C  0.77571397  0.70542632  0.30731134     1.03700
O1457       O  0.80832021  0.75902717  0.24294757    -0.78900
C1458       C  0.82565360  0.83049640  0.36295168     1.02000
Fe1459     Fe  0.99612632  0.94144761  0.34738334     1.65800
Fe1460     Fe  0.93641438  0.99461832  0.34933473     1.73200
Fe1461     Fe  0.98361954  0.98930882  0.26538159     1.54400
O1462       O  0.53060035  0.99120129  0.28301279    -0.82600
O1463       O  0.90915561  0.99577576  0.29719674    -0.80900
O1464       O  0.54027420  0.96386146  0.33955528    -0.85100
O1465       O  0.50464430  0.91523303  0.29745159    -0.80000
O1466       O  0.97674709  0.53445601  0.28106911    -0.81800
O1467       O  0.91667779  0.95142320  0.36181787    -0.84500
C1468       C  0.99950394  0.91977031  0.25787502     0.96300
C1469       C  0.54863431  0.98255558  0.31143293     1.03700
O1470       O  0.97200472  0.97507263  0.32062244    -1.13500
O1471       O  0.95906081  0.49756486  0.40864560    -0.75900
O1472       O  0.99652173  0.96170137  0.40350042    -0.79400
O1473       O  0.99109448  0.94528944  0.24192470    -0.80100
C1474       C  0.98215577  0.98336083  0.42131895     0.95200
O1475       O  0.95512008  0.91626732  0.35947220    -0.78000
O1476       O  0.95349953  0.53945240  0.34150689    -0.83200
C1477       C  0.91304904  0.99217684  0.25916047     0.97800
C1478       C  0.96657169  0.55089620  0.31023188     1.03700
O1479       O  0.93934447  0.98739937  0.24292795    -0.78900
C1480       C  0.92617013  0.92328464  0.36295215     1.02000
Fe1481     Fe  0.94060157  0.75231909  0.84688234     1.65800
Fe1482     Fe  0.50022646  0.80829014  0.84586319     1.73200
Fe1483     Fe  0.98989015  0.75993100  0.76594847     1.54400
O1484       O  0.99407450  0.71448446  0.78556342    -0.82600
O1485       O  0.00880330  0.83017887  0.79430699    -0.80900
O1486       O  0.95683304  0.70799318  0.83285541    -0.85100
O1487       O  0.91298109  0.75301042  0.79522957    -0.80000
O1488       O  0.53661461  0.76800953  0.77706299    -0.81800
O1489       O  0.95769279  0.83219612  0.85444749    -0.84500
C1490       C  0.91886704  0.74993534  0.75765160     0.96300
C1491       C  0.97855069  0.69756238  0.81014294     1.03700
O1492       O  0.97613631  0.77299540  0.82019844    -1.13500
O1493       O  0.49641893  0.79097038  0.90399168    -0.75900
O1494       O  0.96348129  0.74761483  0.90205720    -0.79400
O1495       O  0.94616672  0.75134436  0.74321421    -0.80100
C1496       C  0.98281999  0.76443773  0.92123636     0.95200
O1497       O  0.92103780  0.79514504  0.86246727    -0.78000
O1498       O  0.54205124  0.78331044  0.84109348    -0.83200
C1499       C  0.00150966  0.82812618  0.75699530     0.97800
C1500       C  0.55269633  0.77040511  0.80918209     1.03700
O1501       O  0.98756973  0.80457162  0.74240882    -0.78900
C1502       C  0.92939284  0.82373417  0.86127831     1.02000
Fe1503     Fe  0.81925701  0.98934710  0.84986146     1.65800
Fe1504     Fe  0.76036163  0.93575530  0.85482752     1.73200
Fe1505     Fe  0.76792303  0.98142770  0.77059584     1.54400
O1506       O  0.76824213  0.52703795  0.78073894    -0.82600
O1507       O  0.75134157  0.91044780  0.80320626    -0.80900
O1508       O  0.80159497  0.53290254  0.83255326    -0.85100
O1509       O  0.84541565  0.98619491  0.79754297    -0.80000
O1510       O  0.72185788  0.97808746  0.78675360    -0.81800
O1511       O  0.80180470  0.91079325  0.86126022    -0.84500
C1512       C  0.83930666  0.98788881  0.75987042     0.96300
C1513       C  0.78263599  0.54373852  0.80629429     1.03700
O1514       O  0.78260209  0.96895529  0.82507819    -1.13500
O1515       O  0.76474501  0.95614975  0.91135998    -0.75900
O1516       O  0.79716400  0.99606528  0.90538862    -0.79400
O1517       O  0.81176224  0.98759469  0.74583022    -0.80100
C1518       C  0.77739729  0.98045255  0.92576012     0.95200
O1519       O  0.83936712  0.94665465  0.86693434    -0.78000
O1520       O  0.71711608  0.95784207  0.84905645    -0.83200
C1521       C  0.75633712  0.91223648  0.76526297     0.97800
C1522       C  0.70571757  0.97121355  0.81777720     1.03700
O1523       O  0.76766588  0.93638484  0.74848385    -0.78900
C1524       C  0.83051899  0.91825526  0.86538038     1.02000
Fe1525     Fe  0.50686366  0.68955131  0.15417900     1.65800
Fe1526     Fe  0.56439597  0.74444910  0.15986374     1.73200
Fe1527     Fe  0.51248987  0.73555309  0.23819393     1.54400
O1528       O  0.96852287  0.73154907  0.22560572    -0.82600
O1529       O  0.59032428  0.74124349  0.21242869    -0.80900
O1530       O  0.96420978  0.71324193  0.16243599    -0.85100
O1531       O  0.49663334  0.66432193  0.20568178    -0.80000
O1532       O  0.51048314  0.78178018  0.22127986    -0.81800
O1533       O  0.58463309  0.70263902  0.14191539    -0.84500
C1534       C  0.50048157  0.66627824  0.24379454     0.96300
C1535       C  0.95265723  0.72620265  0.19384232     1.03700
O1536       O  0.52808415  0.72317084  0.18420526    -1.13500
O1537       O  0.54279214  0.75098318  0.10429866    -0.75900
O1538       O  0.51229306  0.70958379  0.09769082    -0.79400
O1539       O  0.51179047  0.69035571  0.26066984    -0.80100
C1540       C  0.52433019  0.73430138  0.08354479     0.95200
O1541       O  0.54890389  0.66489417  0.14841990    -0.78000
O1542       O  0.54885628  0.78859979  0.17587211    -0.83200
C1543       C  0.58388156  0.74315755  0.24997320     0.97800
C1544       C  0.52727927  0.79903540  0.19869914     1.03700
O1545       O  0.55620958  0.74210018  0.26375885    -0.78900
C1546       C  0.57699910  0.67391930  0.14202231     1.02000
Fe1547     Fe  0.74716739  0.56281348  0.15296484     1.65800
Fe1548     Fe  0.68790578  0.50921070  0.15353421     1.73200
Fe1549     Fe  0.73390247  0.51970784  0.23739086     1.54400
O1550       O  0.78042607  0.52269232  0.22552304    -0.82600
O1551       O  0.65940607  0.50759614  0.20425592    -0.80900
O1552       O  0.78856511  0.53786275  0.16162472    -0.85100
O1553       O  0.75577013  0.58824330  0.20496424    -0.80000
O1554       O  0.74186460  0.97503719  0.22203954    -0.81800
O1555       O  0.66779388  0.55240988  0.13914752    -0.84500
C1556       C  0.74790113  0.58762050  0.24209877     0.96300
C1557       C  0.79774974  0.52501094  0.19447272     1.03700
O1558       O  0.72265320  0.53052655  0.18121774    -1.13500
O1559       O  0.71346706  0.00466533  0.10489140    -0.75900
O1560       O  0.74501173  0.54374248  0.09580160    -0.79400
O1561       O  0.73298001  0.56504532  0.25758016    -0.80100
C1562       C  0.73126020  0.52100164  0.07939712     0.95200
O1563       O  0.70603708  0.58818721  0.14365770    -0.78000
O1564       O  0.70437139  0.96732492  0.17569489    -0.83200
C1565       C  0.66346947  0.50901030  0.24234255     0.97800
C1566       C  0.72614009  0.95732633  0.19885948     1.03700
O1567       O  0.68950572  0.51471012  0.25851183    -0.78900
C1568       C  0.67714536  0.58080370  0.13947782     1.02000
C1569       C  0.60277128  0.65052286  0.13681111    -0.07100
C1570       C  0.63254395  0.65800192  0.15234194    -0.18200
C1571       C  0.65737766  0.63643390  0.15270469     0.10100
C1572       C  0.65283632  0.60612908  0.13639033    -0.07000
C1573       C  0.62328688  0.59907700  0.11946978    -0.18200
C1574       C  0.59857825  0.62081481  0.11908669     0.10200
S1575       S  0.69365260  0.64771934  0.17718333    -0.33200
S1576       S  0.56267890  0.60943804  0.09441251    -0.33200
H1577       H  0.55652275  0.63909512  0.07783543     0.28200
H1578       H  0.68555819  0.67873047  0.18606805     0.28200
H1579       H  0.63601590  0.68065407  0.16597676     0.18800
H1580       H  0.61929039  0.57630894  0.10630073     0.18800
C1581       C  0.76706711  0.99119424  0.96705189    -0.07100
C1582       C  0.73939420  0.97825817  0.98334611    -0.18200
C1583       C  0.72118565  0.49610189  0.01019524     0.10100
C1584       C  0.74126349  0.51149948  0.03782082    -0.07000
C1585       C  0.76934700  0.02520283  0.02650171    -0.18200
C1586       C  0.78222595  0.01500385  0.98955254     0.10200
S1587       S  0.67974591  0.49143456  0.01888008    -0.33200
S1588       S  0.81855373  0.03283460  0.97406028    -0.33200
H1589       H  0.83318230  0.00423870  0.96533694     0.28200
H1590       H  0.67580998  0.52093823  0.03674863     0.28200
H1591       H  0.72685654  0.96044859  0.96668190     0.18800
H1592       H  0.78173544  0.04300643  0.04338674     0.18800
C1593       C  0.99215948  0.75595647  0.96331783    -0.07100
C1594       C  0.50462582  0.78144001  0.98814005    -0.18200
C1595       C  0.51488334  0.77477928  0.02780393     0.10100
C1596       C  0.51602695  0.74341316  0.04120237    -0.07000
C1597       C  0.00823936  0.71858655  0.01510424    -0.18200
C1598       C  0.99783459  0.72480937  0.97537896     0.10200
S1599       S  0.52488513  0.80677223  0.06110076    -0.33200
S1600       S  0.99367658  0.69290666  0.93998198    -0.33200
H1601       H  0.00024535  0.66864883  0.96756947     0.28200
H1602       H  0.51830761  0.83116013  0.03372133     0.28200
H1603       H  0.50337149  0.80545517  0.97809920     0.18800
H1604       H  0.01270427  0.69473899  0.02426666     0.18800
C1605       C  0.90415503  0.84772029  0.86563905    -0.07100
C1606       C  0.87573208  0.84248312  0.84520334    -0.18200
C1607       C  0.85136289  0.86456236  0.84511407     0.10100
C1608       C  0.85490565  0.89294737  0.86677836    -0.07000
C1609       C  0.88329933  0.89800008  0.88772850    -0.18200
C1610       C  0.90759679  0.87571375  0.88780461     0.10200
S1611       S  0.81712602  0.85682868  0.81420970    -0.33200
S1612       S  0.94187776  0.88390166  0.91792579    -0.33200
H1613       H  0.94742685  0.85274259  0.92930068     0.28200
H1614       H  0.82568789  0.82693129  0.80077239     0.28200
H1615       H  0.87308737  0.82127289  0.82779990     0.18800
H1616       H  0.88653437  0.91941816  0.90455069     0.18800
C1617       C  0.96976064  0.58478635  0.30584777    -0.07100
C1618       C  0.49560100  0.59849634  0.31879947    -0.18200
C1619       C  0.50652371  0.62613831  0.30067433     0.10100
C1620       C  0.48935571  0.63960844  0.26838688    -0.07000
C1621       C  0.96170379  0.62876633  0.26099254    -0.18200
C1622       C  0.95107559  0.60069995  0.27730718     0.10200
S1623       S  0.54408869  0.64082571  0.31659712    -0.33200
S1624       S  0.91465379  0.58518718  0.25818353    -0.33200
H1625       H  0.90829129  0.56590164  0.29182806     0.28200
H1626       H  0.55470500  0.64737483  0.27697801     0.28200
H1627       H  0.50973584  0.58713702  0.34180315     0.18800
H1628       H  0.94771477  0.64013285  0.23774524     0.18800
C1629       C  0.52299888  0.83290842  0.20228014    -0.07100
C1630       C  0.54648916  0.84953847  0.22245568    -0.18200
C1631       C  0.54067320  0.87927060  0.23775285     0.10100
C1632       C  0.51047785  0.89243067  0.23371762    -0.07000
C1633       C  0.98577461  0.87741813  0.21018514    -0.18200
C1634       C  0.99192199  0.84759820  0.19489267     0.10200
S1635       S  0.57218596  0.89864624  0.26414546    -0.33200
S1636       S  0.96125220  0.82852895  0.16671803    -0.33200
H1637       H  0.97981026  0.80485798  0.14980263     0.28200
H1638       H  0.56221941  0.92905270  0.25462089     0.28200
H1639       H  0.56886996  0.83853269  0.22862302     0.18800
H1640       H  0.96250397  0.88724487  0.20708505     0.18800
C1641       C  0.58094898  0.99425595  0.30898689    -0.07100
C1642       C  0.60579835  0.97337319  0.31466088    -0.18200
C1643       C  0.63502800  0.97929780  0.29691766     0.10100
C1644       C  0.63910149  0.00664824  0.27326922    -0.07000
C1645       C  0.61527980  0.52733011  0.27466077    -0.18200
C1646       C  0.58716997  0.52172653  0.29485211     0.10200
S1647       S  0.66487377  0.94984758  0.30269275    -0.33200
S1648       S  0.56054106  0.55391378  0.30029614    -0.33200
H1649       H  0.54440663  0.54111527  0.33373503     0.28200
H1650       H  0.67789857  0.95323681  0.26378862     0.28200
H1651       H  0.60163827  0.95106657  0.32923650     0.18800
H1652       H  0.61985399  0.55022577  0.26191013     0.18800
C1653       C  0.88584081  0.49355100  0.23613597    -0.07100
C1654       C  0.88538222  0.51698085  0.20613610    -0.18200
C1655       C  0.85718792  0.52610685  0.18774407     0.10100
C1656       C  0.82917000  0.51117341  0.19951896    -0.07000
C1657       C  0.83097208  0.98598570  0.22117900    -0.18200
C1658       C  0.85878142  0.97712150  0.23974851     0.10200
S1659       S  0.85793784  0.55915178  0.15396108    -0.33200
S1660       S  0.85775887  0.94475588  0.27496331    -0.33200
H1661       H  0.88934749  0.93619211  0.27013033     0.28200
H1662       H  0.83907211  0.54476880  0.12440733     0.28200
H1663       H  0.90662213  0.52983058  0.19933762     0.18800
H1664       H  0.80966194  0.97399509  0.23001368     0.18800
C1665       C  0.85152246  0.85387841  0.36801320    -0.07100
C1666       C  0.88197999  0.84531512  0.35600182    -0.18200
C1667       C  0.90674253  0.86682875  0.35466409     0.10100
C1668       C  0.90182190  0.89807448  0.36715372    -0.07000
C1669       C  0.87173300  0.90610920  0.38161079    -0.18200
C1670       C  0.84675753  0.88455553  0.38228888     0.10200
S1671       S  0.94317967  0.85303248  0.33372182    -0.33200
S1672       S  0.80932228  0.89644239  0.40260741    -0.33200
H1673       H  0.81968963  0.92438580  0.42037894     0.28200
H1674       H  0.94431696  0.87642277  0.30362909     0.28200
H1675       H  0.88631630  0.82183233  0.34539414     0.18800
H1676       H  0.86751050  0.92968270  0.39184488     0.18800
C1677       C  0.73370810  0.92370189  0.20085429    -0.07100
C1678       C  0.76523234  0.91543313  0.20707172    -0.18200
C1679       C  0.77356776  0.88593167  0.22139332     0.10100
C1680       C  0.74992158  0.86402231  0.22970447    -0.07000
C1681       C  0.71872798  0.87106270  0.21995754    -0.18200
C1682       C  0.71040055  0.90046175  0.20489489     0.10200
S1683       S  0.81417092  0.87866363  0.23287910    -0.33200
S1684       S  0.66945803  0.90780883  0.19599871    -0.33200
H1685       H  0.67446730  0.91951210  0.15651687     0.28200
H1686       H  0.81319626  0.84715683  0.22154452     0.28200
H1687       H  0.78347513  0.93271403  0.20283784     0.18800
H1688       H  0.70048344  0.85413350  0.22639287     0.18800
C1689       C  0.75735058  0.61410745  0.26763255    -0.07100
C1690       C  0.73508690  0.62883844  0.29235209    -0.18200
C1691       C  0.74183183  0.65753843  0.31057995     0.10100
C1692       C  0.77115374  0.67176312  0.30346880    -0.07000
C1693       C  0.79436610  0.65548537  0.28242937    -0.18200
C1694       C  0.78791220  0.62671868  0.26480470     0.10200
S1695       S  0.71204103  0.67534820  0.34157301    -0.33200
S1696       S  0.81938505  0.60785651  0.23783219    -0.33200
H1697       H  0.81012643  0.57751148  0.24867143     0.28200
H1698       H  0.73235347  0.69526796  0.36293244     0.28200
H1699       H  0.71190848  0.61884351  0.29570839     0.18800
H1700       H  0.81702343  0.66623587  0.27721550     0.18800
C1701       C  0.86247490  0.75454964  0.23077941    -0.07100
C1702       C  0.86534217  0.72609227  0.20997896    -0.18200
C1703       C  0.89390687  0.71727331  0.19221051     0.10100
C1704       C  0.91998742  0.73730170  0.19560779    -0.07000
C1705       C  0.91581516  0.76695047  0.21280573    -0.18200
C1706       C  0.88751965  0.77584723  0.23019801     0.10200
S1707       S  0.89683588  0.67879695  0.17097291    -0.33200
S1708       S  0.88587949  0.81375222  0.25379306    -0.33200
H1709       H  0.85313377  0.81650850  0.25448156     0.28200
H1710       H  0.91495900  0.68835755  0.13749210     0.28200
H1711       H  0.84602429  0.70968174  0.21026532     0.18800
H1712       H  0.93576632  0.78225620  0.21632331     0.18800
C1713       C  0.66853096  0.76893317  0.30718618    -0.07100
C1714       C  0.66411614  0.73802616  0.29433957    -0.18200
C1715       C  0.63527023  0.72765440  0.27994293     0.10100
C1716       C  0.61004157  0.74863300  0.27801588    -0.07000
C1717       C  0.61327921  0.77852911  0.29492267    -0.18200
C1718       C  0.64246684  0.78912157  0.30895041     0.10200
S1719       S  0.63274667  0.68821669  0.26132819    -0.33200
S1720       S  0.64561995  0.82941323  0.32374444    -0.33200
H1721       H  0.67458745  0.83492770  0.30469211     0.28200
H1722       H  0.60010112  0.68540336  0.26566195     0.28200
H1723       H  0.68402200  0.72247423  0.29245653     0.18800
H1724       H  0.59389215  0.79480619  0.29315253     0.18800
C1725       C  0.73930906  0.74085540  0.53848595    -0.07100
C1726       C  0.74127374  0.77286523  0.52983251    -0.18200
C1727       C  0.75198117  0.78368723  0.49204448     0.10100
C1728       C  0.76025621  0.76206031  0.46138880    -0.07000
C1729       C  0.75782129  0.73004696  0.46998141    -0.18200
C1730       C  0.74715230  0.71927270  0.50772616     0.10200
S1731       S  0.75624383  0.82526687  0.48601913    -0.33200
S1732       S  0.74263053  0.67772392  0.51388460    -0.33200
H1733       H  0.71554231  0.67961829  0.53814886     0.28200
H1734       H  0.78467399  0.82348395  0.46447676     0.28200
H1735       H  0.73569569  0.78964028  0.55331661     0.18800
H1736       H  0.76336549  0.71316326  0.44661738     0.18800
C1737       C  0.58434209  0.75656459  0.80661671    -0.07100
C1738       C  0.58684979  0.72997714  0.78183800    -0.18200
C1739       C  0.61535645  0.72048073  0.76586879     0.10100
C1740       C  0.64231542  0.73798794  0.77442692    -0.07000
C1741       C  0.64085880  0.76204307  0.80330934    -0.18200
C1742       C  0.61199570  0.77156200  0.81961232     0.10200
S1743       S  0.61534948  0.68752640  0.73182295    -0.33200
S1744       S  0.61154577  0.80521803  0.85202562    -0.33200
H1745       H  0.59127543  0.79153226  0.88068521     0.28200
H1746       H  0.64706041  0.67968566  0.73739521     0.28200
H1747       H  0.56592408  0.71786899  0.77193894     0.18800
H1748       H  0.66181600  0.77515831  0.81052682     0.18800
C1749       C  0.83544285  0.73395369  0.69021949    -0.07100
C1750       C  0.85832128  0.71055690  0.69138599    -0.18200
C1751       C  0.88702214  0.71570473  0.71097756     0.10100
C1752       C  0.89275910  0.74488308  0.72949151    -0.07000
C1753       C  0.87158491  0.76925096  0.72372459    -0.18200
C1754       C  0.84339743  0.76424485  0.70345795     0.10200
S1755       S  0.91330763  0.68305529  0.71600008    -0.33200
S1756       S  0.81743496  0.79694950  0.69796474    -0.33200
H1757       H  0.80040762  0.78435702  0.66524789     0.28200
H1758       H  0.94084720  0.70029922  0.70978568     0.28200
H1759       H  0.85279564  0.68746245  0.68043026     0.18800
H1760       H  0.87647016  0.79200162  0.73652333     0.18800
C1761       C  0.77852922  0.57743848  0.80200646    -0.07100
C1762       C  0.80088767  0.59305150  0.77852904    -0.18200
C1763       C  0.79396557  0.62163039  0.76040706     0.10100
C1764       C  0.76387664  0.63480292  0.76528872    -0.07000
C1765       C  0.74249851  0.62064873  0.79193069    -0.18200
C1766       C  0.74964105  0.59205162  0.81051317     0.10200
S1767       S  0.82406110  0.63950857  0.72994164    -0.33200
S1768       S  0.72061335  0.57461565  0.84322223    -0.33200
H1769       H  0.74117030  0.55426461  0.86360080     0.28200
H1770       H  0.81562062  0.67015472  0.74021184     0.28200
H1771       H  0.82309720  0.58189473  0.77189954     0.18800
H1772       H  0.71965153  0.63103801  0.79661345     0.18800
C1773       C  0.72666572  0.82949118  0.70395933    -0.07100
C1774       C  0.75364612  0.84486844  0.68995499    -0.18200
C1775       C  0.76399260  0.87252861  0.70837968     0.10100
C1776       C  0.74632841  0.88536257  0.74057973    -0.07000
C1777       C  0.71778393  0.87138748  0.75139531    -0.18200
C1778       C  0.70768914  0.84393995  0.73329397     0.10200
S1779       S  0.80112958  0.88831725  0.69234543    -0.33200
S1780       S  0.67147337  0.82719523  0.75126286    -0.33200
H1781       H  0.66435870  0.81111648  0.71527240     0.28200
H1782       H  0.81135225  0.89600128  0.73169686     0.28200
H1783       H  0.76791489  0.83408108  0.66675053     0.18800
H1784       H  0.70358590  0.88143261  0.77519961     0.18800
C1785       C  0.51214071  0.50639297  0.54481908    -0.07100
C1786       C  0.53427336  0.50172967  0.51397106    -0.18200
C1787       C  0.52493623  0.49534463  0.47395624     0.10100
C1788       C  0.99325508  0.99253165  0.46233442    -0.07000
C1789       C  0.97114332  0.99933567  0.49251883    -0.18200
C1790       C  0.98039045  0.00541252  0.53257921     0.10200
S1791       S  0.55532875  0.49310898  0.43594820    -0.33200
S1792       S  0.94981587  0.01020962  0.56977741    -0.33200
H1793       H  0.96565404  0.99385637  0.60071901     0.28200
H1794       H  0.53773395  0.50768091  0.40508597     0.28200
H1795       H  0.55898947  0.50426879  0.52075980     0.18800
H1796       H  0.94638446  0.99862051  0.48526878     0.18800
C1797       C  0.60509803  0.59889088  0.63665041    -0.07100
C1798       C  0.59712284  0.63008533  0.62833755    -0.18200
C1799       C  0.61998742  0.65360187  0.62481795     0.10100
C1800       C  0.65213572  0.64662333  0.63187330    -0.07000
C1801       C  0.66024734  0.61519368  0.63762567    -0.18200
C1802       C  0.63757700  0.59153766  0.63990692     0.10200
S1803       S  0.60623156  0.69169374  0.61000393    -0.33200
S1804       S  0.65242551  0.55284208  0.64899646    -0.33200
H1805       H  0.63395907  0.54841046  0.68374487     0.28200
H1806       H  0.63106836  0.69705601  0.58268034     0.28200
H1807       H  0.57274234  0.63629912  0.62406175     0.18800
H1808       H  0.68457336  0.60891175  0.64223568     0.18800
C1809       C  0.61614964  0.99595395  0.77610567    -0.07100
C1810       C  0.62154921  0.96501197  0.78824853    -0.18200
C1811       C  0.64953599  0.95657361  0.80782883     0.10100
C1812       C  0.67240897  0.97955580  0.81501828    -0.07000
C1813       C  0.66548089  0.01087652  0.80637837    -0.18200
C1814       C  0.63742333  0.01940428  0.78755728     0.10200
S1815       S  0.65729504  0.91619213  0.81956633    -0.33200
S1816       S  0.63104556  0.06023249  0.77715187    -0.33200
H1817       H  0.59836304  0.56144008  0.76965938     0.28200
H1818       H  0.62908238  0.90410845  0.80407258     0.28200
H1819       H  0.60469646  0.94723112  0.78005864     0.18800
H1820       H  0.68309577  0.02853121  0.81152106     0.18800
C1821       C  0.86570433  0.99112858  0.73164802    -0.07100
C1822       C  0.86753384  0.51601422  0.70438963    -0.18200
C1823       C  0.89668223  0.52566341  0.68908847     0.10100
C1824       C  0.92359929  0.50787527  0.69832682    -0.07000
C1825       C  0.91965434  0.97948933  0.71697996    -0.18200
C1826       C  0.89125275  0.97063281  0.73406781     0.10200
S1827       S  0.89858816  0.56283490  0.66376746    -0.33200
S1828       S  0.88982589  0.93412011  0.76156012    -0.33200
H1829       H  0.85738802  0.92944503  0.75720896     0.28200
H1830       H  0.91758575  0.55198032  0.63199695     0.28200
H1831       H  0.84740289  0.53116329  0.70075942     0.18800
H1832       H  0.93987166  0.96498223  0.72295716     0.18800
C1833       C  0.49954368  0.60677141  0.77621045    -0.07100
C1834       C  0.52346928  0.62436531  0.79406289    -0.18200
C1835       C  0.51691719  0.65356895  0.81097383     0.10100
C1836       C  0.98479781  0.66389881  0.80951492    -0.07000
C1837       C  0.96054822  0.64437781  0.79651998    -0.18200
C1838       C  0.96703704  0.61464027  0.78169878     0.10200
S1839       S  0.54859390  0.67450737  0.83459193    -0.33200
S1840       S  0.93463328  0.59169122  0.76329974    -0.33200
H1841       H  0.94851511  0.56273017  0.77205289     0.28200
H1842       H  0.52973283  0.69538510  0.85655646     0.28200
H1843       H  0.54747067  0.61617624  0.79282171     0.18800
H1844       H  0.93677929  0.65316938  0.79494905     0.18800
C1845       C  0.51127492  0.85513243  0.72840489    -0.07100
C1846       C  0.98731577  0.87148961  0.71037771    -0.18200
C1847       C  0.99416331  0.90084100  0.69375698     0.10100
C1848       C  0.52498072  0.91492169  0.69893907    -0.07000
C1849       C  0.54869159  0.89663238  0.71595682    -0.18200
C1850       C  0.54224795  0.86675532  0.73030774     0.10200
S1851       S  0.96316535  0.92141088  0.66798012    -0.33200
S1852       S  0.57404624  0.84530834  0.75321680    -0.33200
H1853       H  0.56312476  0.81610274  0.74018898     0.28200
H1854       H  0.98260760  0.94210784  0.64636831     0.28200
H1855       H  0.96344343  0.86289481  0.70969316     0.18800
H1856       H  0.57180348  0.90646262  0.72075988     0.18800
loop_ 
_geom_bond_atom_site_label_1 
_geom_bond_atom_site_label_2 
_geom_bond_distance 
_geom_bond_site_symmetry_2 
_ccdc_geom_bond_type 
Fe1          O17   2.087       .  S
Fe1           O7   2.067       .  S
Fe1          O14   2.073   1_545  S
Fe1         O470   2.079   1_545  S
Fe1          O12   1.974       .  S
Fe2           O5   2.055       .  S
Fe2           O9   2.102       .  S
Fe2         O941   2.057       .  S
Fe2         O946   2.091   1_455  S
Fe2          O12   1.971       .  S
Fe3          O21   2.067       .  S
Fe3          O15   2.039       .  S
Fe3         O936   2.028   1_455  S
Fe3         O468   2.057   1_545  S
Fe3          O12   1.970       .  S
O4         Fe467   2.052       .  S
O4           C11   1.268       .  A
O5           C19   1.265       .  A
O6         Fe465   2.073       .  S
O6           C11   1.270       .  A
O7           C10   1.269       .  A
O8         Fe931   2.036       .  S
O8           C20   1.266       .  A
O9           C22   1.281       .  A
C10          O15   1.260       .  A
C10         C881   1.458   1_545  S
C11         C456   1.465       .  S
O13        Fe930   2.062       .  S
O13         C944   1.265       .  A
O14          C16   1.267   1_565  A
C16         O941   1.263       .  A
C16         C393   1.481       .  S
O17          C22   1.275       .  A
O18        Fe930   2.081       .  S
O18          C20   1.271       .  A
C19          O21   1.266       .  A
C19         C441   1.469   1_455  S
C20         C432   1.475       .  S
C22         C405   1.512       .  S
Fe23         O39   2.079       .  S
Fe23         O29   2.067       .  S
Fe23         O36   2.076       .  S
Fe23         O28   2.076       .  S
Fe23         O34   1.977       .  S
Fe24         O27   2.054       .  S
Fe24         O31   2.100       .  S
Fe24         O35   2.054       .  S
Fe24         O40   2.090       .  S
Fe24         O34   1.980       .  S
Fe25         O43   2.066       .  S
Fe25         O30   2.028       .  S
Fe25         O37   2.041       .  S
Fe25         O26   2.058       .  S
Fe25         O34   1.978       .  S
O26          C33   1.268       .  A
O27          C41   1.265       .  A
O28          C33   1.269       .  A
O29          C32   1.270       .  A
O30          C42   1.265       .  A
O31          C44   1.280       .  A
C32          O37   1.261       .  A
C32         C348   1.462       .  S
C33         C381   1.469       .  S
O35          C38   1.263       .  A
O36          C38   1.267       .  A
C38         C333   1.486       .  S
O39          C44   1.274       .  A
O40          C42   1.275       .  A
C41          O43   1.265       .  A
C41         C372   1.471       .  S
C42         C357   1.471       .  S
C44         C408   1.511       .  S
Fe45         O61   2.084       .  S
Fe45         O51   2.074       .  S
Fe45         O58   2.072       .  S
Fe45         O50   2.076       .  S
Fe45         O56   1.957       .  S
Fe46         O49   2.057       .  S
Fe46         O53   2.080       .  S
Fe46         O57   2.067       .  S
Fe46         O62   2.084       .  S
Fe46         O56   1.950       .  S
Fe47         O65   2.067       .  S
Fe47         O52   2.051       .  S
Fe47         O59   2.052       .  S
Fe47         O48   2.047       .  S
Fe47         O56   1.960       .  S
O48          C55   1.265       .  A
O49          C63   1.268       .  A
O50          C55   1.270       .  A
O51          C54   1.272       .  A
O52          C64   1.268       .  A
O53          C66   1.274       .  A
C54          O59   1.267       .  A
C54         C288   1.463       .  S
C55         C321   1.467       .  S
O57          C60   1.270       .  A
O58          C60   1.268       .  A
C60         C336   1.492       .  S
O61          C66   1.276       .  A
O62          C64   1.274       .  A
C63          O65   1.265       .  A
C63         C309   1.469       .  S
C64         C300   1.467       .  S
C66         C273   1.493       .  S
Fe67         O83   2.091       .  S
Fe67         O80   2.052       .  S
Fe67       O1001   2.049       .  S
Fe67       O1000   2.082       .  S
Fe67         O78   1.979       .  S
Fe68         O71   2.074       .  S
Fe68         O75   2.071       .  S
Fe68        O543   2.082       .  S
Fe68        O548   2.077       .  S
Fe68         O78   1.979       .  S
Fe69         O87   2.039       .  S
Fe69         O81   2.058       .  S
Fe69        O538   2.049       .  S
Fe69        O998   2.032       .  S
Fe69         O78   1.977       .  S
O70        Fe997   2.028   1_455  S
O70          C77   1.266       .  A
O71          C85   1.272       .  A
O72        Fe995   2.083   1_455  S
O72          C77   1.275       .  A
O73        Fe995   2.047   1_455  S
O73        C1004   1.262       .  A
O74        Fe533   2.062   1_545  S
O74          C86   1.269       .  A
O75          C88   1.273       .  A
C76          O81   1.263       .  A
C76        O1001   1.264       .  A
C76        C1168   1.464       .  S
C77         C249   1.471       .  S
O79        Fe532   2.076       .  S
O79         C546   1.267       .  A
O80          C82   1.263       .  A
C82         O543   1.269       .  A
C82         C396   1.486       .  S
O83          C88   1.277       .  A
O84        Fe532   2.069   1_545  S
O84          C86   1.268       .  A
C85          O87   1.262       .  A
C85         C725   1.465       .  S
C86         C225   1.467       .  S
C88         C276   1.500       .  S
Fe89        O105   2.083       .  S
Fe89         O95   2.061       .  S
Fe89        O102   2.067       .  S
Fe89         O94   2.076       .  S
Fe89        O100   1.965       .  S
Fe90        O101   2.058       .  S
Fe90        O106   2.086   1_655  S
Fe90       O1021   2.067   1_655  S
Fe90       O1025   2.093       .  S
Fe90       O1028   1.961       .  S
Fe91        O109   2.063       .  S
Fe91        O103   2.040       .  S
Fe91         O92   2.059       .  S
Fe91       O1024   2.030       .  S
Fe91        O100   1.965       .  S
O92          C99   1.271       .  A
O93       Fe1018   2.062       .  S
O93         C107   1.267       .  A
O94          C99   1.273       .  A
O95          C98   1.266       .  A
O96       Fe1019   2.035   1_455  S
O96         C108   1.265       .  A
O97       Fe1018   2.099       .  S
O97         C110   1.281       .  A
C98         O103   1.259       .  A
C98         C360   1.461       .  S
C99         C444   1.467       .  S
O100      Fe1018   1.967       .  S
O101       C1032   1.264       .  A
O102        C104   1.264       .  A
C104       O1029   1.263       .  A
C104        C201   1.488       .  S
O105        C110   1.278       .  A
O106        C108   1.273       .  A
C107        O109   1.267       .  A
C107       C1381   1.470       .  S
C108        C345   1.475       .  S
C110        C213   1.499       .  S
Fe111       O127   2.098       .  S
Fe111       O117   2.057       .  S
Fe111       O124   2.078       .  S
Fe111       O580   2.087       .  S
Fe111       O122   1.969       .  S
Fe112       O115   2.054       .  S
Fe112       O119   2.076       .  S
Fe112       O123   2.064       .  S
Fe112       O128   2.078       .  S
Fe112       O122   1.966       .  S
Fe113       O131   2.072       .  S
Fe113       O118   2.043       .  S
Fe113       O125   2.060       .  S
Fe113       O578   2.049       .  S
Fe113       O122   1.969       .  S
O114       Fe577   2.046   1_545  S
O114        C121   1.266       .  A
O115        C129   1.268       .  A
O116       Fe575   2.087   1_545  S
O116        C121   1.273       .  A
O117        C120   1.268       .  A
O118        C130   1.265       .  A
O119        C132   1.274       .  A
C120        O125   1.264       .  A
C120        C429   1.467       .  S
C121        C369   1.468       .  S
O123        C126   1.266       .  A
O124        C126   1.269       .  A
C126        C189   1.493       .  S
O127        C132   1.277       .  A
O128        C130   1.271       .  A
C129        O131   1.269       .  A
C129        C384   1.479       .  S
C130        C420   1.465       .  S
C132        C216   1.505       .  S
Fe133       O149   2.080       .  S
Fe133       O139   2.058   1_455  S
Fe133       O146   2.062       .  S
Fe133      O1066   2.078   1_455  S
Fe133       O144   1.957       .  S
Fe134       O137   2.056       .  S
Fe134       O141   2.096       .  S
Fe134       O145   2.073       .  S
Fe134       O150   2.091       .  S
Fe134       O144   1.954       .  S
Fe135       O153   2.059       .  S
Fe135       O140   2.056       .  S
Fe135       O147   2.068       .  S
Fe135      O1064   2.044   1_455  S
Fe135       O144   1.960       .  S
O136      Fe1063   2.042       .  S
O136        C143   1.267       .  A
O137        C151   1.268       .  A
O138      Fe1061   2.089       .  S
O138        C143   1.274       .  A
O139        C142   1.268   1_655  A
O140        C152   1.269       .  A
O141        C154   1.279       .  A
C142        O147   1.269       .  A
C142        C228   1.478   1_455  S
C143        C312   1.477       .  S
O145        C148   1.267       .  A
O146        C148   1.266       .  A
C148        C204   1.493       .  S
O149        C154   1.276       .  A
O150        C152   1.275       .  A
C151        O153   1.265       .  A
C151        C324   1.462       .  S
C152        C237   1.473       .  S
C154        C177   1.500       .  S
Fe155       O171   2.089       .  S
Fe155       O161   2.061       .  S
Fe155       O168   2.054       .  S
Fe155       O160   2.086       .  S
Fe155       O166   1.966       .  S
Fe156       O159   2.065       .  S
Fe156       O163   2.093       .  S
Fe156       O631   2.081       .  S
Fe156       O636   2.083   1_545  S
Fe156       O166   1.968       .  S
Fe157       O175   2.028       .  S
Fe157       O169   2.058       .  S
Fe157       O158   2.027       .  S
Fe157       O626   2.057   1_545  S
Fe157       O166   1.965       .  S
O158        C165   1.264       .  A
O159        C173   1.267       .  A
O160        C165   1.273       .  A
O161        C164   1.266       .  A
O162       Fe621   2.043       .  S
O162        C174   1.270       .  A
O163        C176   1.281       .  A
C164        O169   1.264       .  A
C164        C297   1.470       .  S
C165        C264   1.475       .  S
O167       Fe620   2.076       .  S
O167        C634   1.267       .  A
O168        C170   1.262       .  A
C170        O631   1.266       .  A
C170        C192   1.495       .  S
O171        C176   1.280       .  A
O172       Fe620   2.083       .  S
O172        C174   1.275       .  A
C173        O175   1.256       .  A
C173        C716   1.457       .  S
C174        C285   1.471       .  S
C176        C180   1.507       .  S
C177        C178   1.407       .  A
C177        C182   1.415       .  A
C178        C179   1.410       .  A
C178        H187   1.082       .  S
C179        C180   1.422       .  A
C179        S183   1.811       .  S
C180        C181   1.411       .  A
C181        C182   1.407       .  A
C181        H188   1.083       .  S
C182        S184   1.802       .  S
S183        H186   1.406       .  S
S184        H185   1.407       .  S
C189        C190   1.409       .  A
C189        C194   1.415       .  A
C190        C655   1.402   1_556  A
C190        H199   1.084       .  S
C191        C192   1.416   1_565  A
C191        C654   1.405   1_554  A
C191        S195   1.802       .  S
C192        C657   1.409       .  A
C193        C194   1.404   1_554  A
C193        C656   1.409       .  A
C193        H200   1.084       .  S
C194        S196   1.802       .  S
S195        H198   1.407   1_565  S
S196        H197   1.407       .  S
C201        C206   1.415       .  A
C201       C1130   1.406       .  A
C202        C203   1.400   1_556  A
C202       C1129   1.407   1_455  A
C202        H211   1.084   1_455  S
C203        C204   1.416       .  A
C203        S207   1.800       .  S
C204       C1133   1.409       .  A
C205        C206   1.405   1_554  A
C205       C1132   1.408       .  A
C205        H212   1.082       .  S
C206        S208   1.809       .  S
S207        H210   1.407       .  S
S208        H209   1.407       .  S
C213        C214   1.406       .  A
C213        C218   1.416       .  A
C214        C215   1.407       .  A
C214        H223   1.083       .  S
C215        C216   1.421       .  A
C215        S219   1.812       .  S
C216        C217   1.411       .  A
C217        C218   1.411       .  A
C217        H224   1.083       .  S
C218        S220   1.802       .  S
S219        H222   1.406       .  S
S220        H221   1.407       .  S
C225        C230   1.406       .  A
C225       C1154   1.405       .  A
C226        C227   1.405   1_655  A
C226       C1153   1.404       .  A
C226        H235   1.082   1_655  S
C227        C228   1.413   1_455  A
C227        S231   1.801       .  S
C228       C1157   1.406       .  A
C229        C230   1.392       .  A
C229       C1156   1.405       .  A
C229        H236   1.085       .  S
C230        S232   1.804       .  S
S231        H234   1.407       .  S
S232        H233   1.405       .  S
C237        C238   1.400       .  A
C237       C1170   1.414   1_455  A
C238        C239   1.397       .  A
C238        H247   1.084       .  S
C239        C240   1.414       .  A
C239        S243   1.805       .  S
C240       C1004   1.473       .  S
C240       C1169   1.401   1_455  A
C241        C242   1.400       .  A
C241       C1168   1.400       .  A
C241        H248   1.084       .  S
C242       C1165   1.412       .  A
C242        S244   1.801       .  S
S243        H246   1.406       .  S
S244        H245   1.406       .  S
C249        C250   1.401       .  A
C249        C718   1.416       .  A
C250        C251   1.399       .  A
C250        H259   1.083       .  S
C251        C252   1.414       .  A
C251        S255   1.800       .  S
C252        C637   1.461       .  S
C252        C717   1.394       .  A
C253        C254   1.390       .  A
C253        C716   1.393       .  A
C253        H260   1.085       .  S
C254        C713   1.416   1_545  A
C254        S256   1.800       .  S
S255        H258   1.405       .  S
S256        H257   1.407       .  S
C261        C549   1.462       .  S
C261        C262   1.407   1_565  A
C261        C730   1.403       .  A
C262        C263   1.402       .  A
C262        H271   1.084       .  S
C263        C264   1.409       .  A
C263        S267   1.798       .  S
C264        C729   1.410   1_545  A
C265        C266   1.391       .  A
C265        C728   1.409       .  A
C265        H272   1.084       .  S
C266        C725   1.404       .  A
C266        S268   1.806       .  S
S267        H270   1.407       .  S
S268        H269   1.407       .  S
C273        C274   1.406       .  A
C273        C278   1.412       .  A
C274        C275   1.402       .  A
C274        H283   1.083       .  S
C275        C276   1.418       .  A
C275        S279   1.802       .  S
C276        C277   1.412       .  A
C277        C278   1.410       .  A
C277        H284   1.082       .  S
C278        S280   1.807       .  S
S279        H282   1.408       .  S
S280        H281   1.407       .  S
C285        C286   1.406       .  A
C285        C290   1.411       .  A
C286        C287   1.396       .  A
C286        H295   1.084       .  S
C287        C288   1.406       .  A
C287        S291   1.799       .  S
C288        C289   1.402       .  A
C289        C290   1.396       .  A
C289        H296   1.085       .  S
C290        S292   1.800       .  S
S291        H294   1.405       .  S
S292        H293   1.406       .  S
C297        C298   1.402       .  A
C297        C302   1.414       .  A
C298        C299   1.400       .  A
C298        H307   1.084       .  S
C299        C300   1.412       .  A
C299        S303   1.801       .  S
C300        C301   1.399       .  A
C301        C302   1.394       .  A
C301        H308   1.085       .  S
C302        S304   1.805       .  S
S303        H306   1.406       .  S
S304        H305   1.406       .  S
C309        C310   1.407       .  A
C309        C314   1.407       .  A
C310        C311   1.405       .  A
C310        H319   1.084       .  S
C311        C312   1.411       .  A
C311        S315   1.799       .  S
C312        C313   1.405       .  A
C313        C314   1.391       .  A
C313        H320   1.081       .  S
C314        S316   1.806       .  S
S315        H318   1.406       .  S
S316        H317   1.404       .  S
C321        C322   1.404       .  A
C321        C326   1.410       .  A
C322        C323   1.391       .  A
C322        H331   1.081       .  S
C323        C324   1.404       .  A
C323        S327   1.805       .  S
C324        C325   1.406       .  A
C325        C326   1.401       .  A
C325        H332   1.084       .  S
C326        S328   1.801       .  S
S327        H330   1.406       .  S
S328        H329   1.404       .  S
C333        C334   1.405       .  A
C333        C338   1.415       .  A
C334        C335   1.404       .  A
C334        H343   1.084       .  S
C335        C336   1.420       .  A
C335        S339   1.804       .  S
C336        C337   1.405       .  A
C337        C338   1.399       .  A
C337        H344   1.084       .  S
C338        S340   1.804       .  S
S339        H342   1.408       .  S
S340        H341   1.407       .  S
C345        C346   1.408       .  A
C345        C350   1.410       .  A
C346        C347   1.388       .  A
C346        H355   1.084       .  S
C347        C348   1.402       .  A
C347        S351   1.806       .  S
C348        C349   1.406       .  A
C349        C350   1.403       .  A
C349        H356   1.083       .  S
C350        S352   1.798       .  S
S351        H354   1.407       .  S
S352        H353   1.406       .  S
C357        C358   1.401       .  A
C357        C362   1.416       .  A
C358        C359   1.400       .  A
C358        H367   1.083       .  S
C359        C360   1.415       .  A
C359        S363   1.803       .  S
C360        C361   1.394       .  A
C361        C362   1.390       .  A
C361        H368   1.085       .  S
C362        S364   1.799       .  S
S363        H366   1.403       .  S
S364        H365   1.407       .  S
C369        C370   1.399       .  A
C369        C374   1.413       .  A
C370        C371   1.396       .  A
C370        H379   1.085       .  S
C371        C372   1.413       .  A
C371        S375   1.802       .  S
C372        C373   1.401       .  A
C373        C374   1.402       .  A
C373        H380   1.084       .  S
C374        S376   1.801       .  S
S375        H378   1.406       .  S
S376        H377   1.406       .  S
C381        C382   1.406       .  A
C381        C386   1.405       .  A
C382        C383   1.408       .  A
C382        H391   1.082       .  S
C383        C384   1.414       .  A
C383        S387   1.801       .  S
C384        C385   1.404       .  A
C385        C386   1.390       .  A
C385        H392   1.081       .  S
C386        S388   1.803       .  S
S387        H390   1.406       .  S
S388        H389   1.405       .  S
C393        C394   1.400   1_545  A
C393       C1790   1.416   1_455  A
C394        C395   1.401       .  A
C394        H403   1.084       .  S
C395       C1788   1.420   1_455  A
C395        S399   1.804       .  S
C396        C397   1.403       .  A
C396       C1787   1.419       .  A
C397        C398   1.403       .  A
C397        H404   1.084       .  S
C398       C1785   1.416       .  A
C398        S400   1.803       .  S
S399        H402   1.407   1_565  S
S400        H401   1.407       .  S
C405        C406   1.408       .  A
C405        C410   1.426       .  A
C406        C407   1.409       .  A
C406        H415   1.083       .  S
C407        C408   1.423       .  A
C407        S411   1.802       .  S
C408        C409   1.406       .  A
C409        C410   1.407       .  A
C409        H416   1.084       .  S
C410        S412   1.802       .  S
S411        H414   1.408       .  S
S412        H413   1.400       .  S
C417        C474   1.464       .  S
C417        C418   1.404       .  A
C417        C422   1.407       .  A
C418        C419   1.402       .  A
C418        H427   1.083       .  S
C419        C420   1.407       .  A
C419        S423   1.804       .  S
C420        C421   1.403       .  A
C421        C422   1.395       .  A
C421        H428   1.081       .  S
C422        S424   1.805       .  S
S423        H426   1.407       .  S
S424        H889   1.405       .  S
H425        S888   1.406       .  S
C429        C434   1.405       .  A
C429        C894   1.407       .  A
C430        C431   1.403       .  A
C430        C893   1.406   1_545  A
C430        H439   1.084       .  S
C431        C432   1.411       .  A
C431        S435   1.799       .  S
C432        C897   1.407   1_545  A
C433        C434   1.391       .  A
C433        C896   1.407       .  A
C433        H440   1.082       .  S
C434        S436   1.807       .  S
S435        H438   1.404       .  S
S436        H437   1.406       .  S
C441        C442   1.400   1_655  A
C441       C1374   1.413       .  A
C442        C443   1.402       .  A
C442        H451   1.084       .  S
C443       C1372   1.413   1_455  A
C443        S447   1.801       .  S
C444        C445   1.397       .  A
C444       C1371   1.413       .  A
C445        C446   1.395       .  A
C445        H452   1.084       .  S
C446       C1369   1.414       .  A
C446        S448   1.801       .  S
S447        H450   1.406       .  S
S448        H449   1.405       .  S
C453       C1035   1.469       .  S
C453        C458   1.414       .  A
C453       C1382   1.401   1_455  A
C454        C455   1.401       .  A
C454       C1381   1.401       .  A
C454        H463   1.084       .  S
C455       C1384   1.412       .  A
C455        S459   1.802       .  S
C456        C457   1.398       .  A
C456       C1383   1.412   1_455  A
C457        C458   1.395       .  A
C457        H464   1.085       .  S
C458        S460   1.803       .  S
S459        H462   1.406       .  S
S460        H461   1.405       .  S
Fe465       O481   2.077       .  S
Fe465       O471   2.073       .  S
Fe465       O478   2.074       .  S
Fe465       O476   1.971       .  S
Fe466       O469   2.061       .  S
Fe466       O473   2.103       .  S
Fe466      O1405   2.061       .  S
Fe466      O1410   2.087   1_455  S
Fe466       O476   1.969       .  S
Fe467       O485   2.062       .  S
Fe467      O1400   2.034   1_455  S
Fe467       O479   2.045       .  S
Fe467       O476   1.968       .  S
O468        C475   1.269       .  A
O469        C483   1.267       .  A
O470        C475   1.272       .  A
O471        C474   1.270       .  A
O472      Fe1395   2.034       .  S
O472        C484   1.264       .  A
O473        C486   1.281       .  A
C474        O479   1.261       .  A
C475        C920   1.470       .  S
O477      Fe1394   2.069       .  S
O477       C1408   1.267       .  A
O478        C480   1.268       .  A
C480       O1405   1.265       .  A
C480        C857   1.482       .  S
O481        C486   1.273       .  A
O482      Fe1394   2.086       .  S
O482        C484   1.271       .  A
C483        O485   1.266       .  A
C483        C905   1.466   1_455  S
C484        C896   1.476       .  S
C486        C869   1.507       .  S
Fe487       O503   2.064       .  S
Fe487       O493   2.075       .  S
Fe487       O500   2.079       .  S
Fe487       O492   2.060       .  S
Fe487       O498   1.976       .  S
Fe488       O491   2.055       .  S
Fe488       O495   2.104       .  S
Fe488       O499   2.058       .  S
Fe488       O504   2.095       .  S
Fe488       O498   1.978       .  S
Fe489       O507   2.069       .  S
Fe489       O494   2.028       .  S
Fe489       O501   2.042       .  S
Fe489       O490   2.059       .  S
Fe489       O498   1.976       .  S
O490        C497   1.268       .  A
O491        C505   1.265       .  A
O492        C497   1.265       .  A
O493        C496   1.272       .  A
O494        C506   1.266       .  A
O495        C508   1.281       .  A
C496        O501   1.263       .  A
C496        C812   1.463       .  S
C497        C845   1.462       .  S
O499        C502   1.264       .  A
O500        C502   1.268       .  A
C502        C797   1.489       .  S
O503        C508   1.270       .  A
O504        C506   1.276       .  A
C505        O507   1.265       .  A
C505        C836   1.472       .  S
C506        C821   1.475       .  S
C508        C872   1.505       .  S
Fe509       O525   2.080       .  S
Fe509       O515   2.073       .  S
Fe509       O522   2.075       .  S
Fe509       O514   2.077       .  S
Fe509       O520   1.965       .  S
Fe510       O513   2.062       .  S
Fe510       O517   2.073       .  S
Fe510       O521   2.071       .  S
Fe510       O526   2.073       .  S
Fe510       O520   1.965       .  S
Fe511       O529   2.066       .  S
Fe511       O516   2.051       .  S
Fe511       O523   2.063       .  S
Fe511       O512   2.046       .  S
Fe511       O520   1.968       .  S
O512        C519   1.264       .  A
O513        C527   1.268       .  A
O514        C519   1.270       .  A
O515        C518   1.271       .  A
O516        C528   1.268       .  A
O517        C530   1.272       .  A
C518        O523   1.269       .  A
C518        C752   1.469       .  S
C519        C785   1.467       .  S
O521        C524   1.269       .  A
O522        C524   1.269       .  A
C524        C800   1.494       .  S
O525        C530   1.274       .  A
O526        C528   1.271       .  A
C527        O529   1.264       .  A
C527        C773   1.469       .  S
C528        C764   1.462       .  S
C530        C737   1.491       .  S
Fe531       O547   2.088       .  S
Fe531      O1465   2.045       .  S
Fe531       O544   2.047       .  S
Fe531      O1464   2.080       .  S
Fe531       O542   1.978       .  S
Fe532       O535   2.072       .  S
Fe532       O539   2.069       .  S
Fe532       O542   1.978       .  S
Fe533       O551   2.035       .  S
Fe533       O545   2.073       .  S
Fe533      O1462   2.029       .  S
Fe533       O542   1.975       .  S
O534      Fe1461   2.024   1_455  S
O534        C541   1.264       .  A
O535        C549   1.271       .  A
O536      Fe1459   2.082   1_455  S
O536        C541   1.274       .  A
O537      Fe1459   2.041   1_455  S
O537       C1468   1.262   1_455  A
O538        C550   1.265       .  A
O539        C552   1.273       .  A
C540       O1465   1.263       .  A
C540        O545   1.266       .  A
C540       C1632   1.471       .  S
C541        C713   1.468       .  S
O544        C546   1.260       .  A
C546        C860   1.483       .  S
O547        C552   1.277       .  A
O548        C550   1.269       .  A
C549        O551   1.260       .  A
C550        C689   1.467       .  S
C552        C740   1.497       .  S
Fe553       O569   2.086       .  S
Fe553       O559   2.060       .  S
Fe553       O566   2.065       .  S
Fe553       O558   2.082       .  S
Fe553       O564   1.957       .  S
Fe554      O1485   2.070   1_655  S
Fe554      O1489   2.098       .  S
Fe554       O565   2.057       .  S
Fe554       O570   2.092   1_655  S
Fe554      O1492   1.967       .  S
Fe555       O573   2.065       .  S
Fe555      O1488   2.034       .  S
Fe555       O567   2.049       .  S
Fe555       O556   2.058       .  S
Fe555       O564   1.962       .  S
O556        C563   1.271       .  A
O557      Fe1482   2.060       .  S
O557        C571   1.268       .  A
O558        C563   1.274       .  A
O559        C562   1.267       .  A
O560      Fe1483   2.030   1_455  S
O560        C572   1.263       .  A
O561      Fe1482   2.096       .  S
O561        C574   1.280       .  A
C562        O567   1.261       .  A
C562        C824   1.463       .  S
C563        C908   1.470       .  S
O564      Fe1482   1.963       .  S
O565       C1496   1.264       .  A
O566        C568   1.265       .  A
C568       O1493   1.263       .  A
C568        C665   1.487       .  S
O569        C574   1.278       .  A
O570        C572   1.273       .  A
C571        O573   1.268       .  A
C571       C1845   1.468       .  S
C572        C809   1.479       .  S
C574        C677   1.497       .  S
Fe575       O591   2.098       .  S
Fe575       O581   2.055       .  S
Fe575       O588   2.078       .  S
Fe575       O586   1.966       .  S
Fe576       O579   2.052       .  S
Fe576       O583   2.075       .  S
Fe576       O587   2.065       .  S
Fe576       O592   2.070       .  S
Fe576       O586   1.968       .  S
Fe577       O595   2.062       .  S
Fe577       O582   2.043       .  S
Fe577       O589   2.057       .  S
Fe577       O586   1.970       .  S
O578        C585   1.267       .  A
O579        C593   1.266       .  A
O580        C585   1.274       .  A
O581        C584   1.268       .  A
O582        C594   1.267       .  A
O583        C596   1.274       .  A
C584        O589   1.264       .  A
C584        C893   1.464       .  S
C585        C833   1.468       .  S
O587        C590   1.266       .  A
O588        C590   1.269       .  A
C590        C653   1.492       .  S
O591        C596   1.277       .  A
O592        C594   1.271       .  A
C593        O595   1.266       .  A
C593        C848   1.471       .  S
C594        C884   1.462       .  S
C596        C680   1.505       .  S
Fe597       O613   2.093       .  S
Fe597       O603   2.049   1_455  S
Fe597       O610   2.056       .  S
Fe597      O1530   2.088   1_455  S
Fe597       O608   1.969       .  S
Fe598       O601   2.059       .  S
Fe598       O605   2.082       .  S
Fe598       O609   2.068       .  S
Fe598       O614   2.070       .  S
Fe598       O608   1.965       .  S
Fe599       O617   2.059       .  S
Fe599       O604   2.062       .  S
Fe599       O611   2.073       .  S
Fe599      O1528   2.039   1_455  S
Fe599       O608   1.969       .  S
O600      Fe1527   2.042       .  S
O600        C607   1.267       .  A
O601        C615   1.267       .  A
O602      Fe1525   2.087       .  S
O602        C607   1.273       .  A
O603        C606   1.266   1_655  A
O604        C616   1.270       .  A
O605        C618   1.276       .  A
C606        O611   1.269       .  A
C606        C692   1.477   1_455  S
C607        C776   1.475       .  S
O609        C612   1.265       .  A
O610        C612   1.263       .  A
C612        C668   1.486       .  S
O613        C618   1.279       .  A
O614        C616   1.270       .  A
C615        O617   1.264       .  A
C615        C788   1.464       .  S
C616        C701   1.466       .  S
C618        C641   1.496       .  S
Fe619       O635   2.087       .  S
Fe619       O625   2.069       .  S
Fe619       O632   2.059       .  S
Fe619       O624   2.086       .  S
Fe619       O630   1.952       .  S
Fe620       O623   2.062       .  S
Fe620       O627   2.095       .  S
Fe620       O630   1.951       .  S
Fe621       O639   2.037       .  S
Fe621       O633   2.053       .  S
Fe621       O622   2.037       .  S
Fe621       O630   1.958       .  S
O622        C629   1.264       .  A
O623        C637   1.268       .  A
O624        C629   1.272       .  A
O625        C628   1.269       .  A
O626        C638   1.272       .  A
O627        C640   1.281       .  A
C628        O633   1.266       .  A
C628        C761   1.467       .  S
C629        C728   1.475       .  S
O632        C634   1.263       .  A
C634        C656   1.492       .  S
O635        C640   1.280       .  A
O636        C638   1.275       .  A
C637        O639   1.257       .  A
C638        C749   1.475       .  S
C640        C644   1.505       .  S
C641        C642   1.407       .  A
C641        C646   1.413       .  A
C642        C643   1.408       .  A
C642        H651   1.082       .  S
C643        C644   1.421       .  A
C643        S647   1.811       .  S
C644        C645   1.412       .  A
C645        C646   1.408       .  A
C645        H652   1.083       .  S
C646        S648   1.802       .  S
S647        H650   1.407       .  S
S648        H649   1.407       .  S
C653        C654   1.409       .  A
C653        C658   1.413   1_565  A
C654        H663   1.084       .  S
C655        C656   1.413       .  A
C655        S659   1.802       .  S
C657        C658   1.402   1_554  A
C657        H664   1.084       .  S
C658        S660   1.802       .  S
S659        H662   1.407       .  S
S660        H661   1.407   1_545  S
C665       C1594   1.407       .  A
C665        C670   1.414       .  A
C666       C1593   1.405       .  A
C666        C667   1.400   1_656  A
C666        H675   1.084       .  S
C667        C668   1.414       .  A
C667        S671   1.800       .  S
C668       C1597   1.407       .  A
C669       C1596   1.407       .  A
C669        C670   1.402   1_554  A
C669        H676   1.082       .  S
C670        S672   1.810       .  S
S671        H674   1.407       .  S
S672        H673   1.406       .  S
C677        C678   1.405       .  A
C677        C682   1.415       .  A
C678        C679   1.407       .  A
C678        H687   1.083       .  S
C679        C680   1.421       .  A
C679        S683   1.811       .  S
C680        C681   1.411       .  A
C681        C682   1.411       .  A
C681        H688   1.084       .  S
C682        S684   1.802       .  S
S683        H686   1.406       .  S
S684        H685   1.407       .  S
C689       C1618   1.404       .  A
C689        C694   1.408       .  A
C690       C1617   1.404       .  A
C690        C691   1.404   1_655  A
C690        H699   1.082   1_655  S
C691        C692   1.411   1_455  A
C691        S695   1.800       .  S
C692       C1621   1.406       .  A
C693       C1620   1.405       .  A
C693        C694   1.393       .  A
C693        H700   1.084       .  S
C694        S696   1.805       .  S
S695        H698   1.407       .  S
S696        H697   1.406       .  S
C701        C702   1.399       .  A
C701       C1634   1.413   1_455  A
C702        C703   1.394       .  A
C702        H711   1.084       .  S
C703        C704   1.412       .  A
C703        S707   1.804       .  S
C704       C1468   1.465   1_455  S
C704       C1633   1.400   1_455  A
C705       C1632   1.402       .  A
C705        C706   1.403       .  A
C705        H712   1.084       .  S
C706       C1629   1.413       .  A
C706        S708   1.801       .  S
S707        H710   1.406       .  S
S708        H709   1.406       .  S
C713        C714   1.400       .  A
C714        C715   1.398       .  A
C714        H723   1.084       .  S
C715        C716   1.413   1_565  A
C715        S719   1.802       .  S
C717        C718   1.389       .  A
C717        H724   1.085       .  S
C718        S720   1.799       .  S
S719        H722   1.403       .  S
S720        H721   1.406       .  S
C725        C726   1.407       .  A
C726        C727   1.402       .  A
C726        H735   1.084       .  S
C727        C728   1.409       .  A
C727        S731   1.798       .  S
C729        C730   1.389       .  A
C729        H736   1.083       .  S
C730        S732   1.807       .  S
S731        H734   1.407       .  S
S732        H733   1.407       .  S
C737        C738   1.406       .  A
C737        C742   1.413       .  A
C738        C739   1.401       .  A
C738        H747   1.084       .  S
C739        C740   1.418       .  A
C739        S743   1.803       .  S
C740        C741   1.411       .  A
C741        C742   1.408       .  A
C741        H748   1.082       .  S
C742        S744   1.808       .  S
S743        H746   1.408       .  S
S744        H745   1.406       .  S
C749        C750   1.406       .  A
C749        C754   1.412       .  A
C750        C751   1.398       .  A
C750        H759   1.082       .  S
C751        C752   1.407       .  A
C751        S755   1.799       .  S
C752        C753   1.403       .  A
C753        C754   1.399       .  A
C753        H760   1.084       .  S
C754        S756   1.800       .  S
S755        H758   1.405       .  S
S756        H757   1.406       .  S
C761        C762   1.402       .  A
C761        C766   1.414       .  A
C762        C763   1.400       .  A
C762        H771   1.084       .  S
C763        C764   1.411       .  A
C763        S767   1.800       .  S
C764        C765   1.397       .  A
C765        C766   1.391       .  A
C765        H772   1.084       .  S
C766        S768   1.804       .  S
S767        H770   1.407       .  S
S768        H769   1.405       .  S
C773        C774   1.407       .  A
C773        C778   1.408       .  A
C774        C775   1.405       .  A
C774        H783   1.084       .  S
C775        C776   1.411       .  A
C775        S779   1.800       .  S
C776        C777   1.405       .  A
C777        C778   1.393       .  A
C777        H784   1.080       .  S
C778        S780   1.806       .  S
S779        H782   1.406       .  S
S780        H781   1.402       .  S
C785        C786   1.404       .  A
C785        C790   1.410       .  A
C786        C787   1.396       .  A
C786        H795   1.076       .  S
C787        C788   1.405       .  A
C787        S791   1.804       .  S
C788        C789   1.404       .  A
C789        C790   1.400       .  A
C789        H796   1.084       .  S
C790        S792   1.803       .  S
S791        H794   1.405       .  S
S792        H793   1.404       .  S
C797        C798   1.405       .  A
C797        C802   1.416       .  A
C798        C799   1.404       .  A
C798        H807   1.084       .  S
C799        C800   1.418       .  A
C799        S803   1.803       .  S
C800        C801   1.407       .  A
C801        C802   1.403       .  A
C801        H808   1.084       .  S
C802        S804   1.803       .  S
S803        H806   1.408       .  S
S804        H805   1.407       .  S
C809        C810   1.409       .  A
C809        C814   1.411       .  A
C810        C811   1.388       .  A
C810        H819   1.083       .  S
C811        C812   1.402       .  A
C811        S815   1.806       .  S
C812        C813   1.407       .  A
C813        C814   1.405       .  A
C813        H820   1.083       .  S
C814        S816   1.798       .  S
S815        H818   1.407       .  S
S816        H817   1.406       .  S
C821        C822   1.402       .  A
C821        C826   1.415       .  A
C822        C823   1.402       .  A
C822        H831   1.083       .  S
C823        C824   1.417       .  A
C823        S827   1.806       .  S
C824        C825   1.394       .  A
C825        C826   1.390       .  A
C825        H832   1.085       .  S
C826        S828   1.798       .  S
S827        H830   1.399       .  S
S828        H829   1.407       .  S
C833        C834   1.399       .  A
C833        C838   1.413       .  A
C834        C835   1.395       .  A
C834        H843   1.085       .  S
C835        C836   1.413       .  A
C835        S839   1.802       .  S
C836        C837   1.402       .  A
C837        C838   1.403       .  A
C837        H844   1.084       .  S
C838        S840   1.801       .  S
S839        H842   1.406       .  S
S840        H841   1.407       .  S
C845        C846   1.403       .  A
C845        C850   1.405       .  A
C846        C847   1.403       .  A
C846        H855   1.082       .  S
C847        C848   1.412       .  A
C847        S851   1.802       .  S
C848        C849   1.403       .  A
C849        C850   1.389       .  A
C849        H856   1.082       .  S
C850        S852   1.804       .  S
S851        H854   1.405       .  S
S852        H853   1.406       .  S
C857        C858   1.401       .  A
C857       C1326   1.416   1_455  A
C858        C859   1.402       .  A
C858        H867   1.084       .  S
C859       C1324   1.419   1_455  A
C859        S863   1.804       .  S
C860       C1323   1.419       .  A
C860        C861   1.402       .  A
C861        C862   1.400   1_565  A
C861        H868   1.084       .  S
C862       C1321   1.416       .  A
C862        S864   1.801       .  S
S863        H866   1.408       .  S
S864        H865   1.407   1_545  S
C869        C870   1.406       .  A
C869        C874   1.425       .  A
C870        C871   1.409       .  A
C870        H879   1.083       .  S
C871        C872   1.424       .  A
C871        S875   1.802       .  S
C872        C873   1.403       .  A
C873        C874   1.403       .  A
C873        H880   1.084       .  S
C874        S876   1.801       .  S
S875        H878   1.408       .  S
S876        H877   1.399       .  S
C881        C882   1.404       .  A
C881        C886   1.405   1_565  A
C882        C883   1.402       .  A
C882        H891   1.083       .  S
C883        C884   1.407       .  A
C883        S887   1.805       .  S
C884        C885   1.402   1_565  A
C885        C886   1.392       .  A
C885        H892   1.080       .  S
C886        S888   1.805       .  S
S887        H890   1.407       .  S
C893        C898   1.405       .  A
C894        C895   1.405       .  A
C894        H903   1.084       .  S
C895        C896   1.410       .  A
C895        S899   1.799       .  S
C897        C898   1.389       .  A
C897        H904   1.083       .  S
C898        S900   1.807       .  S
S899        H902   1.406       .  S
S900        H901   1.406       .  S
C905        C906   1.399   1_655  A
C905       C1838   1.413       .  A
C906        C907   1.400       .  A
C906        H915   1.084       .  S
C907       C1836   1.413   1_455  A
C907        S911   1.801       .  S
C908       C1835   1.413       .  A
C908        C909   1.399       .  A
C909        C910   1.395       .  A
C909        H916   1.084       .  S
C910       C1833   1.412       .  A
C910        S912   1.801       .  S
S911        H914   1.405       .  S
S912        H913   1.405       .  S
C917       C1499   1.472       .  S
C917       C1846   1.401   1_455  A
C917        C922   1.414       .  A
C918       C1845   1.401       .  A
C918        C919   1.401       .  A
C918        H927   1.084       .  S
C919       C1848   1.412       .  A
C919        S923   1.802       .  S
C920       C1847   1.413   1_455  A
C920        C921   1.399       .  A
C921        C922   1.396       .  A
C921        H928   1.085       .  S
C922        S924   1.803       .  S
S923        H926   1.406       .  S
S924        H925   1.406       .  S
Fe929       O945   2.075       .  S
Fe929       O935   2.071       .  S
Fe929       O942   2.070   1_545  S
Fe929      O1398   2.068   1_545  S
Fe929       O940   1.967       .  S
Fe930       O933   2.062       .  S
Fe930       O937   2.096       .  S
Fe930       O940   1.966       .  S
Fe931       O949   2.068       .  S
Fe931       O943   2.053       .  S
Fe931      O1396   2.055   1_545  S
Fe931       O940   1.964       .  S
O932      Fe1395   2.050       .  S
O932        C939   1.267       .  A
O933        C947   1.267       .  A
O934      Fe1393   2.077       .  S
O934        C939   1.271       .  A
O935        C938   1.269       .  A
O936        C948   1.265       .  A
O937        C950   1.280       .  A
C938        O943   1.263       .  A
C938       C1809   1.467   1_545  S
C939       C1384   1.465       .  S
O942        C944   1.267   1_565  A
C944       C1321   1.479       .  S
O945        C950   1.272       .  A
O946        C948   1.273       .  A
C947        O949   1.268       .  A
C947       C1369   1.469       .  S
C948       C1360   1.480       .  S
C950       C1333   1.503       .  S
Fe951       O967   2.059       .  S
Fe951       O957   2.071       .  S
Fe951       O964   2.074       .  S
Fe951       O956   2.059       .  S
Fe951       O962   1.975       .  S
Fe952       O955   2.062       .  S
Fe952       O959   2.100       .  S
Fe952       O963   2.065       .  S
Fe952       O968   2.091       .  S
Fe952       O962   1.978       .  S
Fe953       O971   2.065       .  S
Fe953       O958   2.032       .  S
Fe953       O965   2.043       .  S
Fe953       O954   2.058       .  S
Fe953       O962   1.977       .  S
O954        C961   1.268       .  A
O955        C969   1.266       .  A
O956        C961   1.265       .  A
O957        C960   1.271       .  A
O958        C970   1.267       .  A
O959        C972   1.281       .  A
C960        O965   1.262       .  A
C960       C1276   1.463       .  S
C961       C1309   1.461       .  S
O963        C966   1.265       .  A
O964        C966   1.267       .  A
C966       C1261   1.490       .  S
O967        C972   1.269       .  A
O968        C970   1.276       .  A
C969        O971   1.264       .  A
C969       C1300   1.473       .  S
C970       C1285   1.473       .  S
C972       C1336   1.502       .  S
Fe973       O989   2.100       .  S
Fe973       O979   2.065       .  S
Fe973       O986   2.068       .  S
Fe973       O978   2.097       .  S
Fe973       O984   1.982       .  S
Fe974       O977   2.071       .  S
Fe974       O981   2.063       .  S
Fe974       O985   2.074       .  S
Fe974       O990   2.060       .  S
Fe974       O984   1.981       .  S
Fe975       O993   2.047       .  S
Fe975       O980   2.048       .  S
Fe975       O987   2.064       .  S
Fe975       O976   2.026       .  S
Fe975       O984   1.980       .  S
O976        C983   1.263       .  A
O977        C991   1.269       .  A
O978        C983   1.274       .  A
O979        C982   1.268       .  A
O980        C992   1.266       .  A
O981        C994   1.271       .  A
C982        O987   1.266       .  A
C982       C1216   1.469       .  S
C983       C1249   1.483       .  S
O985        C988   1.268       .  A
O986        C988   1.266       .  A
C988       C1264   1.491       .  S
O989        C994   1.278       .  A
O990        C992   1.267       .  A
C991        O993   1.262       .  A
C991       C1237   1.464       .  S
C992       C1228   1.457       .  S
C994       C1201   1.495       .  S
Fe995      O1011   2.093       .  S
Fe995      O1008   2.046       .  S
Fe995      O1006   1.975       .  S
Fe996       O999   2.072       .  S
Fe996      O1003   2.071       .  S
Fe996      O1471   2.079       .  S
Fe996      O1476   2.067       .  S
Fe996      O1006   1.980       .  S
Fe997      O1015   2.034       .  S
Fe997      O1466   2.064       .  S
Fe997      O1009   2.074       .  S
Fe997      O1006   1.974       .  S
O998       C1005   1.266       .  A
O999       C1013   1.271       .  A
O1000      C1005   1.274       .  A
O1002     Fe1461   2.056   1_545  S
O1002      C1014   1.267       .  A
O1003      C1016   1.273       .  A
C1004      O1009   1.266   1_455  A
C1005      C1177   1.468       .  S
O1007     Fe1460   2.080       .  S
O1007      C1474   1.268       .  A
O1008      C1010   1.260       .  A
C1010      O1471   1.267       .  A
C1010      C1324   1.485       .  S
O1011      C1016   1.279       .  A
O1012     Fe1460   2.073   1_545  S
O1012      C1014   1.268       .  A
C1013      O1015   1.261       .  A
C1013      C1653   1.460       .  S
C1014      C1153   1.467       .  S
C1016      C1204   1.494       .  S
Fe1017     O1033   2.086       .  S
Fe1017     O1023   2.062       .  S
Fe1017     O1030   2.070       .  S
Fe1017     O1022   2.079       .  S
Fe1017     O1028   1.957       .  S
Fe1018     O1029   2.056       .  S
Fe1018     O1034   2.090       .  S
Fe1019     O1037   2.062       .  S
Fe1019     O1031   2.046       .  S
Fe1019     O1020   2.057       .  S
Fe1019     O1028   1.960       .  S
O1020      C1027   1.270       .  A
O1021      C1035   1.268       .  A
O1022      C1027   1.273       .  A
O1023      C1026   1.268       .  A
O1024      C1036   1.264       .  A
O1025      C1038   1.281       .  A
C1026      O1031   1.261       .  A
C1026      C1288   1.463       .  S
C1027      C1372   1.468       .  S
O1030      C1032   1.266       .  A
C1032      C1129   1.490       .  S
O1033      C1038   1.278       .  A
O1034      C1036   1.273       .  A
C1035      O1037   1.267   1_455  A
C1036      C1273   1.478       .  S
C1038      C1141   1.498       .  S
Fe1039     O1055   2.086       .  S
Fe1039     O1045   2.053       .  S
Fe1039     O1052   2.070       .  S
Fe1039     O1508   2.076       .  S
Fe1039     O1050   1.975       .  S
Fe1040     O1043   2.045       .  S
Fe1040     O1047   2.086       .  S
Fe1040     O1051   2.058       .  S
Fe1040     O1056   2.081       .  S
Fe1040     O1050   1.976       .  S
Fe1041     O1059   2.061       .  S
Fe1041     O1046   2.038       .  S
Fe1041     O1053   2.056       .  S
Fe1041     O1506   2.044       .  S
Fe1041     O1050   1.977       .  S
O1042     Fe1505   2.047   1_545  S
O1042      C1049   1.267       .  A
O1043      C1057   1.265       .  A
O1044     Fe1503   2.086   1_545  S
O1044      C1049   1.274       .  A
O1045      C1048   1.267       .  A
O1046      C1058   1.266       .  A
O1047      C1060   1.275       .  A
C1048      O1053   1.264       .  A
C1048      C1357   1.463       .  S
C1049      C1297   1.467       .  S
O1051      C1054   1.265       .  A
O1052      C1054   1.266       .  A
C1054      C1117   1.491       .  S
O1055      C1060   1.275       .  A
O1056      C1058   1.273       .  A
C1057      O1059   1.265       .  A
C1057      C1312   1.468       .  S
C1058      C1348   1.470       .  S
C1060      C1144   1.505       .  S
Fe1061     O1077   2.098       .  S
Fe1061     O1067   2.050       .  S
Fe1061     O1074   2.061       .  S
Fe1061     O1072   1.970       .  S
Fe1062     O1065   2.060       .  S
Fe1062     O1069   2.076       .  S
Fe1062     O1073   2.066       .  S
Fe1062     O1078   2.069       .  S
Fe1062     O1072   1.968       .  S
Fe1063     O1081   2.064       .  S
Fe1063     O1068   2.053       .  S
Fe1063     O1075   2.070       .  S
Fe1063     O1072   1.973       .  S
O1064      C1071   1.267       .  A
O1065      C1079   1.268       .  A
O1066      C1071   1.272       .  A
O1067      C1070   1.266       .  A
O1068      C1080   1.267       .  A
O1069      C1082   1.274       .  A
C1070      O1075   1.268       .  A
C1070      C1156   1.475       .  S
C1071      C1240   1.467       .  S
O1073      C1076   1.266       .  A
O1074      C1076   1.265       .  A
C1076      C1132   1.490       .  S
O1077      C1082   1.279       .  A
O1078      C1080   1.269       .  A
C1079      O1081   1.266       .  A
C1079      C1252   1.468       .  S
C1080      C1165   1.463       .  S
C1082      C1105   1.503       .  S
Fe1083     O1099   2.080       .  S
Fe1083     O1089   2.074       .  S
Fe1083     O1096   2.071       .  S
Fe1083     O1088   2.077       .  S
Fe1083     O1094   1.953       .  S
Fe1084     O1087   2.055       .  S
Fe1084     O1091   2.103       .  S
Fe1084     O1559   2.067       .  S
Fe1084     O1564   2.090   1_545  S
Fe1084     O1094   1.943       .  S
Fe1085     O1103   2.045       .  S
Fe1085     O1554   2.045   1_545  S
Fe1085     O1097   2.052       .  S
Fe1085     O1086   2.038       .  S
Fe1085     O1094   1.953       .  S
O1086      C1093   1.266       .  A
O1087      C1101   1.268       .  A
O1088      C1093   1.271       .  A
O1089      C1092   1.270       .  A
O1090     Fe1549   2.057       .  S
O1090      C1102   1.272       .  A
O1091      C1104   1.282       .  A
C1092      O1097   1.266       .  A
C1092      C1225   1.467       .  S
C1093      C1192   1.469       .  S
O1095     Fe1548   2.071       .  S
O1095      C1562   1.264       .  A
O1096      C1098   1.266       .  A
C1098      O1559   1.265       .  A
C1098      C1120   1.497       .  S
O1099      C1104   1.278       .  A
O1100     Fe1548   2.087       .  S
O1100      C1102   1.276       .  A
C1101      O1103   1.261       .  A
C1101      C1644   1.459       .  S
C1102      C1213   1.480       .  S
C1104      C1108   1.512       .  S
C1105      C1106   1.408       .  A
C1105      C1110   1.414       .  A
C1106      C1107   1.408       .  A
C1106      H1115   1.081       .  S
C1107      C1108   1.423       .  A
C1107      S1111   1.812       .  S
C1108      C1109   1.414       .  A
C1109      C1110   1.409       .  A
C1109      H1116   1.083       .  S
C1110      S1112   1.801       .  S
S1111      H1114   1.407       .  S
S1112      H1113   1.408       .  S
C1117      C1118   1.408       .  A
C1117      C1122   1.415       .  A
C1118      C1583   1.401   1_556  A
C1118      H1127   1.084       .  S
C1119      C1582   1.401   1_554  A
C1119      C1120   1.416   1_565  A
C1119      S1123   1.803       .  S
C1120      C1585   1.409       .  A
C1121      C1584   1.408       .  A
C1121      C1122   1.402   1_554  A
C1121      H1128   1.084       .  S
C1122      S1124   1.802       .  S
S1123      H1126   1.408   1_565  S
S1124      H1125   1.407       .  S
C1129      C1134   1.415       .  A
C1130      C1131   1.403   1_556  A
C1130      H1139   1.083       .  S
C1131      C1132   1.415       .  A
C1131      S1135   1.809       .  S
C1133      C1134   1.405   1_454  A
C1133      H1140   1.082       .  S
C1134      S1136   1.810       .  S
S1135      H1138   1.407       .  S
S1136      H1137   1.406       .  S
C1141      C1142   1.407       .  A
C1141      C1146   1.414       .  A
C1142      C1143   1.409       .  A
C1142      H1151   1.083       .  S
C1143      C1144   1.421       .  A
C1143      S1147   1.811       .  S
C1144      C1145   1.411       .  A
C1145      C1146   1.408       .  A
C1145      H1152   1.083       .  S
C1146      S1148   1.802       .  S
S1147      H1150   1.407       .  S
S1148      H1149   1.407       .  S
C1153      C1158   1.406       .  A
C1154      C1155   1.405       .  A
C1154      H1163   1.082       .  S
C1155      C1156   1.412       .  A
C1155      S1159   1.801       .  S
C1157      C1158   1.392       .  A
C1157      H1164   1.084       .  S
C1158      S1160   1.804       .  S
S1159      H1162   1.406       .  S
S1160      H1161   1.406       .  S
C1165      C1166   1.398       .  A
C1166      C1167   1.393       .  A
C1166      H1175   1.085       .  S
C1167      C1168   1.411       .  A
C1167      S1171   1.802       .  S
C1169      C1170   1.403       .  A
C1169      H1176   1.084       .  S
C1170      S1172   1.801       .  S
S1171      H1174   1.406       .  S
S1172      H1173   1.405       .  S
C1177      C1178   1.400       .  A
C1177      C1646   1.414       .  A
C1178      C1179   1.398       .  A
C1178      H1187   1.083       .  S
C1179      C1180   1.414       .  A
C1179      S1183   1.804       .  S
C1180      C1565   1.458       .  S
C1180      C1645   1.394       .  A
C1181      C1644   1.394       .  A
C1181      C1182   1.387       .  A
C1181      H1188   1.085       .  S
C1182      C1641   1.415   1_545  A
C1182      S1184   1.799       .  S
S1183      H1186   1.402       .  S
S1184      H1185   1.406       .  S
C1189      C1477   1.459       .  S
C1189      C1190   1.406   1_565  A
C1189      C1658   1.402       .  A
C1190      C1191   1.401       .  A
C1190      H1199   1.084       .  S
C1191      C1192   1.409       .  A
C1191      S1195   1.799       .  S
C1192      C1657   1.407   1_545  A
C1193      C1656   1.410       .  A
C1193      C1194   1.388       .  A
C1193      H1200   1.083       .  S
C1194      C1653   1.402       .  A
C1194      S1196   1.807       .  S
S1195      H1198   1.406       .  S
S1196      H1197   1.407       .  S
C1201      C1202   1.405       .  A
C1201      C1206   1.414       .  A
C1202      C1203   1.399       .  A
C1202      H1211   1.082       .  S
C1203      C1204   1.415       .  A
C1203      S1207   1.803       .  S
C1204      C1205   1.410       .  A
C1205      C1206   1.413       .  A
C1205      H1212   1.082       .  S
C1206      S1208   1.806       .  S
S1207      H1210   1.408       .  S
S1208      H1209   1.406       .  S
C1213      C1214   1.406       .  A
C1213      C1218   1.413       .  A
C1214      C1215   1.397       .  A
C1214      H1223   1.081       .  S
C1215      C1216   1.406       .  A
C1215      S1219   1.801       .  S
C1216      C1217   1.403       .  A
C1217      C1218   1.402       .  A
C1217      H1224   1.084       .  S
C1218      S1220   1.799       .  S
S1219      H1222   1.405       .  S
S1220      H1221   1.406       .  S
C1225      C1226   1.401       .  A
C1225      C1230   1.415       .  A
C1226      C1227   1.399       .  A
C1226      H1235   1.084       .  S
C1227      C1228   1.410       .  A
C1227      S1231   1.802       .  S
C1228      C1229   1.396       .  A
C1229      C1230   1.392       .  A
C1229      H1236   1.085       .  S
C1230      S1232   1.802       .  S
S1231      H1234   1.407       .  S
S1232      H1233   1.405       .  S
C1237      C1238   1.406       .  A
C1237      C1242   1.406       .  A
C1238      C1239   1.402       .  A
C1238      H1247   1.084       .  S
C1239      C1240   1.409       .  A
C1239      S1243   1.801       .  S
C1240      C1241   1.404       .  A
C1241      C1242   1.392       .  A
C1241      H1248   1.081       .  S
C1242      S1244   1.805       .  S
S1243      H1246   1.405       .  S
S1244      H1245   1.401       .  S
C1249      C1250   1.409       .  A
C1249      C1254   1.413       .  A
C1250      C1251   1.392       .  A
C1250      H1259   1.082       .  S
C1251      C1252   1.404       .  A
C1251      S1255   1.805       .  S
C1252      C1253   1.406       .  A
C1253      C1254   1.406       .  A
C1253      H1260   1.084       .  S
C1254      S1256   1.798       .  S
S1255      H1258   1.406       .  S
S1256      H1257   1.407       .  S
C1261      C1262   1.406       .  A
C1261      C1266   1.416       .  A
C1262      C1263   1.404       .  A
C1262      H1271   1.084       .  S
C1263      C1264   1.417       .  A
C1263      S1267   1.803       .  S
C1264      C1265   1.406       .  A
C1265      C1266   1.403       .  A
C1265      H1272   1.084       .  S
C1266      S1268   1.803       .  S
S1267      H1270   1.407       .  S
S1268      H1269   1.408       .  S
C1273      C1274   1.410       .  A
C1273      C1278   1.411       .  A
C1274      C1275   1.389       .  A
C1274      H1283   1.084       .  S
C1275      C1276   1.402       .  A
C1275      S1279   1.806       .  S
C1276      C1277   1.406       .  A
C1277      C1278   1.404       .  A
C1277      H1284   1.083       .  S
C1278      S1280   1.798       .  S
S1279      H1282   1.407       .  S
S1280      H1281   1.406       .  S
C1285      C1286   1.402       .  A
C1285      C1290   1.415       .  A
C1286      C1287   1.401       .  A
C1286      H1295   1.083       .  S
C1287      C1288   1.414       .  A
C1287      S1291   1.801       .  S
C1288      C1289   1.395       .  A
C1289      C1290   1.391       .  A
C1289      H1296   1.085       .  S
C1290      S1292   1.799       .  S
S1291      H1294   1.405       .  S
S1292      H1293   1.407       .  S
C1297      C1298   1.399       .  A
C1297      C1302   1.412       .  A
C1298      C1299   1.396       .  A
C1298      H1307   1.085       .  S
C1299      C1300   1.413       .  A
C1299      S1303   1.802       .  S
C1300      C1301   1.402       .  A
C1301      C1302   1.403       .  A
C1301      H1308   1.084       .  S
C1302      S1304   1.802       .  S
S1303      H1306   1.406       .  S
S1304      H1305   1.407       .  S
C1309      C1310   1.402       .  A
C1309      C1314   1.406       .  A
C1310      C1311   1.402       .  A
C1310      H1319   1.082       .  S
C1311      C1312   1.412       .  A
C1311      S1315   1.802       .  S
C1312      C1313   1.403       .  A
C1313      C1314   1.389       .  A
C1313      H1320   1.084       .  S
C1314      S1316   1.803       .  S
S1315      H1318   1.406       .  S
S1316      H1317   1.406       .  S
C1321      C1322   1.400   1_545  A
C1322      C1323   1.401       .  A
C1322      H1331   1.084   1_565  S
C1323      S1327   1.803       .  S
C1324      C1325   1.402       .  A
C1325      C1326   1.401       .  A
C1325      H1332   1.084       .  S
C1326      S1328   1.801       .  S
S1327      H1330   1.407   1_565  S
S1328      H1329   1.407       .  S
C1333      C1334   1.405       .  A
C1333      C1338   1.425       .  A
C1334      C1335   1.406       .  A
C1334      H1343   1.083       .  S
C1335      C1336   1.424       .  A
C1335      S1339   1.803       .  S
C1336      C1337   1.403       .  A
C1337      C1338   1.402       .  A
C1337      H1344   1.083       .  S
C1338      S1340   1.801       .  S
S1339      H1342   1.408       .  S
S1340      H1341   1.401       .  S
C1345      C1402   1.464       .  S
C1345      C1346   1.405       .  A
C1345      C1350   1.405       .  A
C1346      C1347   1.404       .  A
C1346      H1355   1.084       .  S
C1347      C1348   1.409       .  A
C1347      S1351   1.806       .  S
C1348      C1349   1.405       .  A
C1349      C1350   1.392       .  A
C1349      H1356   1.081       .  S
C1350      S1352   1.804       .  S
S1351      H1354   1.407       .  S
S1352      H1817   1.407       .  S
H1353      S1816   1.406       .  S
C1357      C1822   1.406       .  A
C1357      C1362   1.404       .  A
C1358      C1821   1.407   1_545  A
C1358      C1359   1.405       .  A
C1358      H1367   1.084       .  S
C1359      C1360   1.412       .  A
C1359      S1363   1.799       .  S
C1360      C1825   1.409   1_545  A
C1361      C1824   1.409       .  A
C1361      C1362   1.390       .  A
C1361      H1368   1.083       .  S
C1362      S1364   1.807       .  S
S1363      H1366   1.404       .  S
S1364      H1365   1.407       .  S
C1369      C1370   1.400       .  A
C1370      C1371   1.401       .  A
C1370      H1379   1.084       .  S
C1371      S1375   1.801       .  S
C1372      C1373   1.397       .  A
C1373      C1374   1.394       .  A
C1373      H1380   1.084       .  S
C1374      S1376   1.802       .  S
S1375      H1378   1.406       .  S
S1376      H1377   1.406       .  S
C1381      C1386   1.415       .  A
C1382      C1383   1.400       .  A
C1382      H1391   1.084       .  S
C1383      S1387   1.801       .  S
C1384      C1385   1.398       .  A
C1385      C1386   1.394       .  A
C1385      H1392   1.085       .  S
C1386      S1388   1.804       .  S
S1387      H1390   1.406       .  S
S1388      H1389   1.406       .  S
Fe1393     O1409   2.078       .  S
Fe1393     O1399   2.069       .  S
Fe1393     O1406   2.075       .  S
Fe1393     O1404   1.964       .  S
Fe1394     O1397   2.071       .  S
Fe1394     O1401   2.100       .  S
Fe1394     O1404   1.964       .  S
Fe1395     O1413   2.061       .  S
Fe1395     O1407   2.050       .  S
Fe1395     O1404   1.965       .  S
O1396      C1403   1.268       .  A
O1397      C1411   1.270       .  A
O1398      C1403   1.270       .  A
O1399      C1402   1.270       .  A
O1400      C1412   1.265       .  A
O1401      C1414   1.280       .  A
C1402      O1407   1.262       .  A
C1403      C1848   1.464       .  S
O1406      C1408   1.269       .  A
C1408      C1785   1.482       .  S
O1409      C1414   1.272       .  A
O1410      C1412   1.273       .  A
C1411      O1413   1.267       .  A
C1411      C1833   1.468       .  S
C1412      C1824   1.479       .  S
C1414      C1797   1.509       .  S
Fe1415     O1431   2.073       .  S
Fe1415     O1421   2.060       .  S
Fe1415     O1428   2.065       .  S
Fe1415     O1420   2.072       .  S
Fe1415     O1426   1.978       .  S
Fe1416     O1419   2.059       .  S
Fe1416     O1423   2.098       .  S
Fe1416     O1427   2.058       .  S
Fe1416     O1432   2.092       .  S
Fe1416     O1426   1.982       .  S
Fe1417     O1435   2.063       .  S
Fe1417     O1422   2.037       .  S
Fe1417     O1429   2.051       .  S
Fe1417     O1418   2.053       .  S
Fe1417     O1426   1.979       .  S
O1418      C1425   1.266       .  A
O1419      C1433   1.266       .  A
O1420      C1425   1.268       .  A
O1421      C1424   1.269       .  A
O1422      C1434   1.267       .  A
O1423      C1436   1.280       .  A
C1424      O1429   1.263       .  A
C1424      C1740   1.464       .  S
C1425      C1773   1.466       .  S
O1427      C1430   1.264       .  A
O1428      C1430   1.265       .  A
C1430      C1725   1.482       .  S
O1431      C1436   1.271       .  A
O1432      C1434   1.275       .  A
C1433      O1435   1.265       .  A
C1433      C1764   1.471       .  S
C1434      C1749   1.474       .  S
C1436      C1800   1.508       .  S
Fe1437     O1453   2.092       .  S
Fe1437     O1443   2.065       .  S
Fe1437     O1450   2.067       .  S
Fe1437     O1442   2.088       .  S
Fe1437     O1448   1.969       .  S
Fe1438     O1441   2.058       .  S
Fe1438     O1445   2.078       .  S
Fe1438     O1449   2.063       .  S
Fe1438     O1454   2.079       .  S
Fe1438     O1448   1.966       .  S
Fe1439     O1457   2.062       .  S
Fe1439     O1444   2.046       .  S
Fe1439     O1451   2.058       .  S
Fe1439     O1440   2.040       .  S
Fe1439     O1448   1.968       .  S
O1440      C1447   1.265       .  A
O1441      C1455   1.267       .  A
O1442      C1447   1.273       .  A
O1443      C1446   1.268       .  A
O1444      C1456   1.266       .  A
O1445      C1458   1.274       .  A
C1446      O1451   1.267       .  A
C1446      C1680   1.464       .  S
C1447      C1713   1.473       .  S
O1449      C1452   1.267       .  A
O1450      C1452   1.267       .  A
C1452      C1728   1.485       .  S
O1453      C1458   1.277       .  A
O1454      C1456   1.272       .  A
C1455      O1457   1.264       .  A
C1455      C1701   1.468       .  S
C1456      C1692   1.463       .  S
C1458      C1665   1.501       .  S
Fe1459     O1475   2.094       .  S
Fe1459     O1472   2.043       .  S
Fe1459     O1470   1.977       .  S
Fe1460     O1463   2.072       .  S
Fe1460     O1467   2.075       .  S
Fe1460     O1470   1.977       .  S
Fe1461     O1479   2.031       .  S
Fe1461     O1473   2.068       .  S
Fe1461     O1470   1.978       .  S
O1462      C1469   1.265       .  A
O1463      C1477   1.272       .  A
O1464      C1469   1.273       .  A
O1466      C1478   1.269       .  A
O1467      C1480   1.274       .  A
C1468      O1473   1.265       .  A
C1469      C1641   1.470       .  S
O1472      C1474   1.260       .  A
C1474      C1788   1.484       .  S
O1475      C1480   1.277       .  A
O1476      C1478   1.267       .  A
C1477      O1479   1.260       .  A
C1478      C1617   1.467       .  S
C1480      C1668   1.506       .  S
Fe1481     O1497   2.084       .  S
Fe1481     O1487   2.068       .  S
Fe1481     O1494   2.070       .  S
Fe1481     O1486   2.078       .  S
Fe1481     O1492   1.963       .  S
Fe1482     O1493   2.055       .  S
Fe1482     O1498   2.089       .  S
Fe1483     O1501   2.066       .  S
Fe1483     O1495   2.044       .  S
Fe1483     O1484   2.060       .  S
Fe1483     O1492   1.962       .  S
O1484      C1491   1.271       .  A
O1485      C1499   1.269       .  A
O1486      C1491   1.273       .  A
O1487      C1490   1.268       .  A
O1488      C1500   1.264       .  A
O1489      C1502   1.281       .  A
C1490      O1495   1.260       .  A
C1490      C1752   1.465       .  S
C1491      C1836   1.469       .  S
O1494      C1496   1.266       .  A
C1496      C1593   1.484       .  S
O1497      C1502   1.278       .  A
O1498      C1500   1.272       .  A
C1499      O1501   1.268   1_455  A
C1500      C1737   1.478       .  S
C1502      C1605   1.497       .  S
Fe1503     O1519   2.098       .  S
Fe1503     O1509   2.056       .  S
Fe1503     O1516   2.076       .  S
Fe1503     O1514   1.970       .  S
Fe1504     O1507   2.055       .  S
Fe1504     O1511   2.079       .  S
Fe1504     O1515   2.066       .  S
Fe1504     O1520   2.084       .  S
Fe1504     O1514   1.969       .  S
Fe1505     O1523   2.067       .  S
Fe1505     O1510   2.042       .  S
Fe1505     O1517   2.057       .  S
Fe1505     O1514   1.970       .  S
O1506      C1513   1.265       .  A
O1507      C1521   1.268       .  A
O1508      C1513   1.270       .  A
O1509      C1512   1.268       .  A
O1510      C1522   1.265       .  A
O1511      C1524   1.274       .  A
C1512      O1517   1.263       .  A
C1512      C1821   1.466       .  S
C1513      C1761   1.463       .  S
O1515      C1518   1.267       .  A
O1516      C1518   1.267       .  A
C1518      C1581   1.502       .  S
O1519      C1524   1.277       .  A
O1520      C1522   1.273       .  A
C1521      O1523   1.268       .  A
C1521      C1776   1.476       .  S
C1522      C1812   1.469       .  S
C1524      C1608   1.505       .  S
Fe1525     O1541   2.092       .  S
Fe1525     O1531   2.054       .  S
Fe1525     O1538   2.057       .  S
Fe1525     O1536   1.971       .  S
Fe1526     O1529   2.057       .  S
Fe1526     O1533   2.079       .  S
Fe1526     O1537   2.065       .  S
Fe1526     O1542   2.077       .  S
Fe1526     O1536   1.967       .  S
Fe1527     O1545   2.066       .  S
Fe1527     O1532   2.060       .  S
Fe1527     O1539   2.073       .  S
Fe1527     O1536   1.971       .  S
O1528      C1535   1.266       .  A
O1529      C1543   1.268       .  A
O1530      C1535   1.274       .  A
O1531      C1534   1.267       .  A
O1532      C1544   1.269       .  A
O1533      C1546   1.275       .  A
C1534      O1539   1.270       .  A
C1534      C1620   1.477       .  S
C1535      C1704   1.475       .  S
O1537      C1540   1.266       .  A
O1538      C1540   1.265       .  A
C1540      C1596   1.488       .  S
O1541      C1546   1.277       .  A
O1542      C1544   1.271       .  A
C1543      O1545   1.266       .  A
C1543      C1716   1.468       .  S
C1544      C1629   1.470       .  S
C1546      C1569   1.500       .  S
Fe1547     O1563   2.088       .  S
Fe1547     O1553   2.064       .  S
Fe1547     O1560   2.055       .  S
Fe1547     O1552   2.085       .  S
Fe1547     O1558   1.967       .  S
Fe1548     O1551   2.065       .  S
Fe1548     O1555   2.096       .  S
Fe1548     O1558   1.967       .  S
Fe1549     O1567   2.029       .  S
Fe1549     O1561   2.058       .  S
Fe1549     O1550   2.028       .  S
Fe1549     O1558   1.963       .  S
O1550      C1557   1.264       .  A
O1551      C1565   1.266       .  A
O1552      C1557   1.273       .  A
O1553      C1556   1.267       .  A
O1554      C1566   1.270       .  A
O1555      C1568   1.282       .  A
C1556      O1561   1.265       .  A
C1556      C1689   1.472       .  S
C1557      C1656   1.476       .  S
O1560      C1562   1.261       .  A
C1562      C1584   1.491       .  S
O1563      C1568   1.281       .  A
O1564      C1566   1.275       .  A
C1565      O1567   1.256       .  A
C1566      C1677   1.480       .  S
C1568      C1572   1.506       .  S
C1569      C1570   1.407       .  A
C1569      C1574   1.415       .  A
C1570      C1571   1.407       .  A
C1570      H1579   1.082       .  S
C1571      C1572   1.422       .  A
C1571      S1575   1.812       .  S
C1572      C1573   1.412       .  A
C1573      C1574   1.408       .  A
C1573      H1580   1.083       .  S
C1574      S1576   1.802       .  S
S1575      H1578   1.407       .  S
S1576      H1577   1.407       .  S
C1581      C1582   1.410       .  A
C1581      C1586   1.419   1_565  A
C1582      H1591   1.083       .  S
C1583      C1584   1.414       .  A
C1583      S1587   1.803       .  S
C1585      C1586   1.405   1_554  A
C1585      H1592   1.084       .  S
C1586      S1588   1.802       .  S
S1587      H1590   1.408       .  S
S1588      H1589   1.407       .  S
C1593      C1598   1.414       .  A
C1594      C1595   1.404   1_556  A
C1594      H1603   1.082       .  S
C1595      C1596   1.416       .  A
C1595      S1599   1.810       .  S
C1597      C1598   1.404   1_454  A
C1597      H1604   1.083       .  S
C1598      S1600   1.809       .  S
S1599      H1602   1.406       .  S
S1600      H1601   1.407   1_655  S
C1605      C1606   1.405       .  A
C1605      C1610   1.415       .  A
C1606      C1607   1.407       .  A
C1606      H1615   1.083       .  S
C1607      C1608   1.421       .  A
C1607      S1611   1.811       .  S
C1608      C1609   1.411       .  A
C1609      C1610   1.411       .  A
C1609      H1616   1.083       .  S
C1610      S1612   1.802       .  S
S1611      H1614   1.407       .  S
S1612      H1613   1.407       .  S
C1617      C1622   1.407       .  A
C1618      C1619   1.405       .  A
C1618      H1627   1.082       .  S
C1619      C1620   1.412       .  A
C1619      S1623   1.801       .  S
C1621      C1622   1.392       .  A
C1621      H1628   1.085       .  S
C1622      S1624   1.805       .  S
S1623      H1626   1.407       .  S
S1624      H1625   1.406       .  S
C1629      C1630   1.399       .  A
C1630      C1631   1.395       .  A
C1630      H1639   1.085       .  S
C1631      C1632   1.413       .  A
C1631      S1635   1.805       .  S
C1633      C1634   1.401       .  A
C1633      H1640   1.084       .  S
C1634      S1636   1.802       .  S
S1635      H1638   1.407       .  S
S1636      H1637   1.405       .  S
C1641      C1642   1.401       .  A
C1642      C1643   1.400       .  A
C1642      H1651   1.084       .  S
C1643      C1644   1.416   1_565  A
C1643      S1647   1.804       .  S
C1645      C1646   1.392       .  A
C1645      H1652   1.084       .  S
C1646      S1648   1.798       .  S
S1647      H1650   1.402       .  S
S1648      H1649   1.407       .  S
C1653      C1654   1.406       .  A
C1654      C1655   1.402       .  A
C1654      H1663   1.084       .  S
C1655      C1656   1.410       .  A
C1655      S1659   1.798       .  S
C1657      C1658   1.388       .  A
C1657      H1664   1.084       .  S
C1658      S1660   1.806       .  S
S1659      H1662   1.406       .  S
S1660      H1661   1.407       .  S
C1665      C1666   1.408       .  A
C1665      C1670   1.414       .  A
C1666      C1667   1.404       .  A
C1666      H1675   1.083       .  S
C1667      C1668   1.419       .  A
C1667      S1671   1.802       .  S
C1668      C1669   1.413       .  A
C1669      C1670   1.411       .  A
C1669      H1676   1.082       .  S
C1670      S1672   1.806       .  S
S1671      H1674   1.408       .  S
S1672      H1673   1.407       .  S
C1677      C1678   1.406       .  A
C1677      C1682   1.414       .  A
C1678      C1679   1.395       .  A
C1678      H1687   1.084       .  S
C1679      C1680   1.405       .  A
C1679      S1683   1.801       .  S
C1680      C1681   1.402       .  A
C1681      C1682   1.400       .  A
C1681      H1688   1.085       .  S
C1682      S1684   1.800       .  S
S1683      H1686   1.404       .  S
S1684      H1685   1.407       .  S
C1689      C1690   1.403       .  A
C1689      C1694   1.415       .  A
C1690      C1691   1.401       .  A
C1690      H1699   1.084       .  S
C1691      C1692   1.411       .  A
C1691      S1695   1.802       .  S
C1692      C1693   1.397       .  A
C1693      C1694   1.393       .  A
C1693      H1700   1.085       .  S
C1694      S1696   1.803       .  S
S1695      H1698   1.407       .  S
S1696      H1697   1.405       .  S
C1701      C1702   1.407       .  A
C1701      C1706   1.406       .  A
C1702      C1703   1.405       .  A
C1702      H1711   1.084       .  S
C1703      C1704   1.411       .  A
C1703      S1707   1.799       .  S
C1704      C1705   1.405       .  A
C1705      C1706   1.391       .  A
C1705      H1712   1.082       .  S
C1706      S1708   1.806       .  S
S1707      H1710   1.406       .  S
S1708      H1709   1.403       .  S
C1713      C1714   1.406       .  A
C1713      C1718   1.412       .  A
C1714      C1715   1.393       .  A
C1714      H1723   1.083       .  S
C1715      C1716   1.405       .  A
C1715      S1719   1.805       .  S
C1716      C1717   1.407       .  A
C1717      C1718   1.404       .  A
C1717      H1724   1.084       .  S
C1718      S1720   1.803       .  S
S1719      H1722   1.406       .  S
S1720      H1721   1.406       .  S
C1725      C1726   1.404       .  A
C1725      C1730   1.414       .  A
C1726      C1727   1.402       .  A
C1726      H1735   1.084       .  S
C1727      C1728   1.417       .  A
C1727      S1731   1.803       .  S
C1728      C1729   1.405       .  A
C1729      C1730   1.399       .  A
C1729      H1736   1.084       .  S
C1730      S1732   1.804       .  S
S1731      H1734   1.407       .  S
S1732      H1733   1.407       .  S
C1737      C1738   1.408       .  A
C1737      C1742   1.411       .  A
C1738      C1739   1.387       .  A
C1738      H1747   1.084       .  S
C1739      C1740   1.403       .  A
C1739      S1743   1.807       .  S
C1740      C1741   1.406       .  A
C1741      C1742   1.405       .  A
C1741      H1748   1.083       .  S
C1742      S1744   1.798       .  S
S1743      H1746   1.407       .  S
S1744      H1745   1.406       .  S
C1749      C1750   1.401       .  A
C1749      C1754   1.413       .  A
C1750      C1751   1.402       .  A
C1750      H1759   1.082       .  S
C1751      C1752   1.415       .  A
C1751      S1755   1.802       .  S
C1752      C1753   1.395       .  A
C1753      C1754   1.392       .  A
C1753      H1760   1.085       .  S
C1754      S1756   1.797       .  S
S1755      H1758   1.403       .  S
S1756      H1757   1.408       .  S
C1761      C1762   1.397       .  A
C1761      C1766   1.412       .  A
C1762      C1763   1.393       .  A
C1762      H1771   1.085       .  S
C1763      C1764   1.413       .  A
C1763      S1767   1.799       .  S
C1764      C1765   1.402       .  A
C1765      C1766   1.402       .  A
C1765      H1772   1.084       .  S
C1766      S1768   1.802       .  S
S1767      H1770   1.406       .  S
S1768      H1769   1.406       .  S
C1773      C1774   1.404       .  A
C1773      C1778   1.406       .  A
C1774      C1775   1.405       .  A
C1774      H1783   1.082       .  S
C1775      C1776   1.413       .  A
C1775      S1779   1.802       .  S
C1776      C1777   1.403       .  A
C1777      C1778   1.390       .  A
C1777      H1784   1.081       .  S
C1778      S1780   1.803       .  S
S1779      H1782   1.406       .  S
S1780      H1781   1.405       .  S
C1785      C1786   1.401       .  A
C1786      C1787   1.403       .  A
C1786      H1795   1.084       .  S
C1787      S1791   1.804       .  S
C1788      C1789   1.401       .  A
C1789      C1790   1.401   1_565  A
C1789      H1796   1.084       .  S
C1790      S1792   1.801       .  S
S1791      H1794   1.407       .  S
S1792      H1793   1.407   1_545  S
C1797      C1798   1.407       .  A
C1797      C1802   1.426       .  A
C1798      C1799   1.408       .  A
C1798      H1807   1.083       .  S
C1799      C1800   1.424       .  A
C1799      S1803   1.802       .  S
C1800      C1801   1.405       .  A
C1801      C1802   1.404       .  A
C1801      H1808   1.083       .  S
C1802      S1804   1.801       .  S
S1803      H1806   1.408       .  S
S1804      H1805   1.401       .  S
C1809      C1810   1.404       .  A
C1809      C1814   1.407   1_565  A
C1810      C1811   1.404       .  A
C1810      H1819   1.083       .  S
C1811      C1812   1.408       .  A
C1811      S1815   1.805       .  S
C1812      C1813   1.404   1_565  A
C1813      C1814   1.396       .  A
C1813      H1820   1.081       .  S
C1814      S1816   1.805       .  S
S1815      H1818   1.407       .  S
C1821      C1826   1.403       .  A
C1822      C1823   1.404       .  A
C1822      H1831   1.084       .  S
C1823      C1824   1.412       .  A
C1823      S1827   1.798       .  S
C1825      C1826   1.389       .  A
C1825      H1832   1.082       .  S
C1826      S1828   1.807       .  S
S1827      H1830   1.403       .  S
S1828      H1829   1.406       .  S
C1833      C1834   1.400       .  A
C1834      C1835   1.401       .  A
C1834      H1843   1.084       .  S
C1835      S1839   1.801       .  S
C1836      C1837   1.399       .  A
C1837      C1838   1.395       .  A
C1837      H1844   1.084       .  S
C1838      S1840   1.803       .  S
S1839      H1842   1.406       .  S
S1840      H1841   1.406       .  S
C1845      C1850   1.414       .  A
C1846      C1847   1.402       .  A
C1846      H1855   1.084       .  S
C1847      S1851   1.801       .  S
C1848      C1849   1.397       .  A
C1849      C1850   1.392       .  A
C1849      H1856   1.085       .  S
C1850      S1852   1.804       .  S
S1851      H1854   1.406       .  S
S1852      H1853   1.405       .  S
