geometry optimzed in LAMMPS
_audit_creation_date              2020-12-01 
_audit_creation_method            'lammps2cif' 
_symmetry_space_group_name_H-M    'P1' 
_symmetry_Int_Tables_number       1 
_symmetry_cell_setting            triclinic 
loop_ 
_symmetry_equiv_pos_as_xyz 
  x,y,z 
_cell_length_a                    32.96195581 
_cell_length_b                    32.75268511755148 
_cell_length_c                    94.46206300707135 
_cell_angle_alpha                 89.76884850598664 
_cell_angle_beta                  90.32421061818148 
_cell_angle_gamma                 119.87921297166315 
loop_ 
_atom_site_label 
_atom_site_type_symbol 
_atom_site_fract_x 
_atom_site_fract_y 
_atom_site_fract_z 
_atom_site_charge 
O1          O  0.84835581  0.14562443  0.61403061    -0.80600
O2          O  0.89960199  0.18546484  0.55208971    -0.65200
O3          O  0.89165413  0.20354376  0.59150887    -1.11800
C4          C  0.73795815  0.17111169  0.57920117     1.06300
O5          O  0.87082245  0.23166705  0.54642311    -0.78500
O6          O  0.83476900  0.26432873  0.56597102    -0.66000
Ni7        Ni  0.90769412  0.17082944  0.60502124     1.34900
C8          C  0.84739602  0.28071308  0.57837723     0.85100
O9          O  0.96050990  0.20687527  0.57340062    -0.79000
O10         O  0.96801612  0.19417112  0.59652392    -0.89300
C11         C  0.89630345  0.21359555  0.54357223     0.84600
O12         O  0.88320426  0.11185016  0.59567182    -0.67500
O13         O  0.75296411  0.17981024  0.56644989    -0.86800
C14         C  0.87103808  0.09869256  0.58302320     0.85500
C15         C  0.98425842  0.20577517  0.58399786     1.07000
H16         H  0.81297563  0.14434689  0.57026519     0.38800
O17         O  0.83251825  0.17797043  0.57153125    -1.09400
O18         O  0.84784583  0.25620370  0.58886820    -0.66100
Ni19       Ni  0.82787609  0.18981131  0.59117194     1.26300
O20         O  0.87517989  0.12663847  0.57311300    -0.66300
O21         O  0.76353371  0.17488293  0.58990660    -0.78600
C22         C  0.83540280  0.17229980  0.61954290     0.84900
O23         O  0.82684818  0.19849126  0.61149291    -0.65800
Ni24       Ni  0.81281601  0.20488160  0.55719264     1.27400
Ni25       Ni  0.89648522  0.19285222  0.57196287     1.26100
H26         H  0.91174313  0.23678215  0.59329645     0.34000
O27         O  0.16082382  0.31878296  0.39127234    -0.80600
O28         O  0.09463350  0.30491721  0.45103256    -0.65200
O29         O  0.11474354  0.33679486  0.41188899    -1.11800
C30         C  0.26129764  0.45956335  0.42786036     1.06300
O31         O  0.11758012  0.37894344  0.45650133    -0.78500
O32         O  0.15102070  0.44502171  0.43617603    -0.66000
Ni33       Ni  0.09828003  0.28985143  0.39798655     1.34900
C34         C  0.14941966  0.45202061  0.42302035     0.85100
O35         O  0.04074954  0.26709104  0.42811214    -0.79000
O36         O  0.03513480  0.25814494  0.40441110    -0.89300
C37         C  0.09427325  0.33510354  0.45930935     0.84600
O38         O  0.11113052  0.24791032  0.40832936    -0.67500
O39         O  0.23859680  0.45532001  0.43922364    -0.86800
C40         C  0.12568675  0.24783040  0.42075437     0.85500
C41         C  0.01787006  0.24724740  0.41682081     1.07000
H42         H  0.18617489  0.35541300  0.43638421     0.38800
O43         O  0.16677096  0.36841898  0.43349813    -1.09400
O44         O  0.16109562  0.43247560  0.41352061    -0.66100
Ni45       Ni  0.17928418  0.38481882  0.41377303     1.26300
O46         O  0.12704169  0.27503763  0.43047818    -0.66300
O47         O  0.24339079  0.43342177  0.41694496    -0.78600
C48         C  0.17898577  0.35899389  0.38562722     0.84900
O49         O  0.18847509  0.39443988  0.39340469    -0.65800
Ni50       Ni  0.17739892  0.41515826  0.44703376     1.27400
Ni51       Ni  0.10371757  0.31831269  0.43123312     1.26100
H52         H  0.09653824  0.35178215  0.40974425     0.39400
O53         O  0.12463061  0.84683337  0.38814795    -0.80600
O54         O  0.17791019  0.91240252  0.44989186    -0.65200
O55         O  0.18408461  0.89693757  0.41009767    -1.11800
C56         C  0.16443330  0.74921796  0.42477745     1.06300
O57         O  0.23138866  0.89130838  0.45323072    -0.78500
O58         O  0.25741242  0.84793661  0.43446001    -0.66000
Ni59       Ni  0.14559513  0.90634193  0.39705775     1.34900
C60         C  0.27102470  0.86137424  0.42190393     0.85100
O61         O  0.18643753  0.96689043  0.42775056    -0.79000
O62         O  0.16423711  0.96666762  0.40510428    -0.89300
C63         C  0.21245624  0.91539123  0.45679181     0.84600
O64         O  0.08933378  0.87769401  0.40767971    -0.67500
O65         O  0.17397477  0.76652269  0.43727530    -0.86800
C66         C  0.07966248  0.86966241  0.42071416     0.85500
C67         C  0.17871126  0.98627457  0.41714256     1.07000
H68         H  0.13583075  0.82155800  0.43300655     0.38800
O69         O  0.16848405  0.84277450  0.43096893    -1.09400
O70         O  0.24401490  0.86123512  0.41213913    -0.66100
Ni71       Ni  0.17645086  0.83513144  0.41133618     1.26300
O72         O  0.11057978  0.87923604  0.43025106    -0.66300
O73         O  0.16739707  0.77277048  0.41361704    -0.78600
C74         C  0.15251692  0.83489219  0.38298839     0.84900
O75         O  0.18087942  0.83012603  0.39110169    -0.65800
Ni76       Ni  0.20160238  0.82921515  0.44478753     1.27400
Ni77       Ni  0.17793525  0.90495730  0.42982973     1.26100
H78         H  0.21607164  0.91880989  0.40750826     0.39400
O79         O  0.32288154  0.17884489  0.61087490    -0.80600
O80         O  0.29213378  0.11484260  0.54995260    -0.65200
O81         O  0.32448822  0.12684767  0.58900361    -1.11800
C82         C  0.45364516  0.27284663  0.57419683     1.06300
O83         O  0.36448316  0.13677239  0.54334837    -0.78500
O84         O  0.43657936  0.16971710  0.56181146    -0.66000
Ni85       Ni  0.28031836  0.11943503  0.60300012     1.34900
C86         C  0.44054605  0.15727281  0.57424424     0.85100
O87         O  0.25287051  0.05842540  0.57237996    -0.79000
O88         O  0.23572721  0.05940681  0.59546591    -0.89300
C89         C  0.32061414  0.11523693  0.54093485     0.84600
O90         O  0.25096803  0.14947443  0.59369657    -0.67500
O91         O  0.44319018  0.25627361  0.56163466    -0.86800
C92         C  0.24631188  0.15711886  0.58082079     0.85500
C93         C  0.22809434  0.03935997  0.58340237     1.07000
H94         H  0.34763502  0.20446088  0.56694778     0.38800
O95         O  0.35887193  0.18247138  0.56818945    -1.09400
O96         O  0.41846132  0.16027037  0.58486897    -0.66100
Ni97       Ni  0.37904351  0.18801619  0.58755886     1.26300
O98         O  0.26521870  0.14695081  0.57080943    -0.66300
O99         O  0.43267349  0.24965472  0.58528643    -0.78600
C100        C  0.36080734  0.18487778  0.61604701     0.84900
O101        O  0.39304743  0.19023775  0.60761859    -0.65800
Ni102      Ni  0.40212998  0.19579806  0.55328825     1.27400
Ni103      Ni  0.30590778  0.12035776  0.56969522     1.26100
H104        H  0.33412085  0.10395755  0.59100418     0.39400
O105        O  0.69683805  0.88454089  0.39425608    -0.80600
O106        O  0.71140217  0.84328522  0.45458650    -0.65200
O107        O  0.67962257  0.82401709  0.41568341    -1.11800
C108        C  0.56094926  0.85828012  0.42925698     1.06300
O109        O  0.63741596  0.79522604  0.46035103    -0.78500
O110        O  0.56727959  0.76306792  0.44111519    -0.66000
Ni111      Ni  0.72607495  0.85168557  0.40167679     1.34900
C112        C  0.56093688  0.74912553  0.42835001     0.85100
O113        O  0.74849951  0.82128003  0.43274344    -0.79000
O114        O  0.75722154  0.82028454  0.40909491    -0.89300
C115        C  0.68114082  0.81238994  0.46269901     0.84600
O116        O  0.76894820  0.90838388  0.41094600    -0.67500
O117        O  0.56692821  0.84639324  0.44171381    -0.86800
C118        C  0.76915365  0.92603440  0.42285696     0.85500
C119        C  0.76717315  0.81462999  0.42176943     1.07000
H120        H  0.66326689  0.88421383  0.43777468     0.38800
O121        O  0.64935878  0.85075853  0.43605489    -1.09400
O122        O  0.58400895  0.77551108  0.41799677    -0.66100
Ni123      Ni  0.63189576  0.84136348  0.41645991     1.26300
O124        O  0.74229218  0.90221625  0.43291344    -0.66300
O125        O  0.58406750  0.85843400  0.41839127    -0.78600
C126        C  0.65741538  0.86102592  0.38837889     0.84900
O127        O  0.62182923  0.83606819  0.39610635    -0.65800
Ni128      Ni  0.60388980  0.82182085  0.45035743     1.27400
Ni129      Ni  0.69846515  0.83573060  0.43487900     1.26100
H130        H  0.66476382  0.79055751  0.41427470     0.39400
O131        O  0.86716988  0.70373655  0.60779466    -0.80600
O132        O  0.83380286  0.72969831  0.54696553    -0.65200
O133        O  0.81034049  0.69127242  0.58547581    -1.11800
C134        C  0.84761375  0.57520771  0.57065607     1.06300
O135        O  0.79045856  0.65644640  0.53938719    -0.78500
O136        O  0.75594433  0.58358672  0.55753899    -0.66000
Ni137      Ni  0.83766903  0.73603202  0.60017522     1.34900
C138        C  0.73905230  0.57492473  0.56992856     0.85100
O139        O  0.80714427  0.76146568  0.56913272    -0.79000
O140        O  0.80976742  0.77063691  0.59285611    -0.89300
C141        C  0.80771857  0.70064566  0.53766534     0.84600
O142        O  0.89605617  0.77817808  0.59173331    -0.67500
O143        O  0.83889692  0.58409508  0.55815528    -0.86800
C144        C  0.91272960  0.78164553  0.57946924     0.85500
C145        C  0.80240958  0.78047612  0.58036170     1.07000
H146        H  0.87392485  0.68000467  0.56378737     0.38800
O147        O  0.84037356  0.66498643  0.56486786    -1.09400
O148        O  0.76255902  0.59580874  0.58101709    -0.66100
Ni149      Ni  0.82759890  0.64343112  0.58415337     1.26300
O150        O  0.88847346  0.75788725  0.56900230    -0.66300
O151        O  0.84505158  0.59587383  0.58179333    -0.78600
C152        C  0.84250456  0.66300245  0.61285643     0.84900
O153        O  0.81861293  0.62899496  0.60435953    -0.65800
Ni154      Ni  0.81574590  0.62217887  0.54958112     1.27400
Ni155      Ni  0.82342014  0.71284730  0.56646331     1.26100
H156        H  0.77689141  0.67621550  0.58672249     0.39400
O157        O  0.05872724  0.56141003  0.05564281    -0.80600
O158        O  0.08061352  0.52436765  0.11650794    -0.65200
O159        O  0.04382482  0.50275200  0.07774091    -1.11800
C160        C  0.92639783  0.53683086  0.09250180     1.06300
O161        O  0.00742814  0.47669847  0.12317452    -0.78500
O162        O  0.93661089  0.44173605  0.10405670    -0.66000
Ni163      Ni  0.08841112  0.52902390  0.06315288     1.34900
C164        C  0.92807082  0.42845133  0.09124178     0.85100
O165        O  0.11551011  0.50207969  0.09416029    -0.79000
O166        O  0.12107203  0.49906206  0.07045563    -0.89300
C167        C  0.05145253  0.49548558  0.12533421     0.84600
O168        O  0.13158664  0.58654775  0.07185605    -0.67500
O169        O  0.93277530  0.52343231  0.10467604    -0.86800
C170        C  0.13346015  0.60480137  0.08378157     0.85500
C171        C  0.13377717  0.49598193  0.08301242     1.07000
H172        H  0.02990692  0.56379631  0.10027213     0.38800
O173        O  0.01601212  0.53040551  0.09850945    -1.09400
O174        O  0.94858291  0.45543917  0.08077260    -0.66100
Ni175      Ni  0.99664747  0.52078977  0.07899316     1.26300
O176        O  0.10833389  0.58176503  0.09424228    -0.66300
O177        O  0.94952477  0.53869420  0.08144212    -0.78600
C178        C  0.01809661  0.53887642  0.05046665     0.84900
O179        O  0.98388568  0.51459969  0.05872457    -0.65800
Ni180      Ni  0.97180335  0.50098857  0.11312187     1.27400
Ni181      Ni  0.06508027  0.51552196  0.09681820     1.26100
H182        H  0.02847460  0.46902187  0.07651125     0.39400
O183        O  0.19789523  0.37973774  0.27684416    -0.80600
O184        O  0.17263763  0.39590526  0.21433061    -0.65200
O185        O  0.14455795  0.36426578  0.25325117    -1.11800
C186        C  0.17593503  0.24168809  0.24177475     1.06300
O187        O  0.12250133  0.32196203  0.20862994    -0.78500
O188        O  0.08470291  0.25117187  0.22786225    -0.66000
Ni189      Ni  0.16960416  0.41082658  0.26746643     1.34900
C190        C  0.06924434  0.24510431  0.24042828     0.85100
O191        O  0.14871569  0.43485959  0.23508836    -0.79000
O192        O  0.14319812  0.44463778  0.25845874    -0.89300
C193        C  0.14255195  0.36600323  0.20587125     0.84600
O194        O  0.22917667  0.45128999  0.25947353    -0.67500
O195        O  0.16614079  0.24759104  0.22903169    -0.86800
C196        C  0.24903808  0.45105737  0.24807225     0.85500
C197        C  0.14062250  0.45446445  0.24551737     1.07000
H198        H  0.20651293  0.34466563  0.23279382     0.38800
O199        O  0.17324038  0.33201201  0.23393102    -1.09400
O200        O  0.09437801  0.26775481  0.25104236    -0.66100
Ni201      Ni  0.15980308  0.31480483  0.25348520     1.26300
O202        O  0.22702528  0.42549569  0.23749096    -0.66300
O203        O  0.17520510  0.26550785  0.25238394    -0.78600
C204        C  0.17365000  0.33912877  0.28209169     0.84900
O205        O  0.15021331  0.30432477  0.27382438    -0.65800
Ni206      Ni  0.14507002  0.28632630  0.21952066     1.27400
Ni207      Ni  0.16092375  0.38314960  0.23409322     1.26100
H208        H  0.11095914  0.35008126  0.25388792     0.39400
O209        O  0.64440910  0.82832628  0.28034286    -0.80600
O210        O  0.63675466  0.78558755  0.21788042    -0.65200
O211        O  0.66200360  0.78945002  0.25741033    -1.11800
C212        C  0.78532064  0.94391594  0.24653203     1.06300
O213        O  0.71161234  0.81176780  0.21337958    -0.78500
O214        O  0.77846629  0.84418370  0.23338011    -0.66000
Ni215      Ni  0.61389967  0.76902312  0.27094279     1.34900
C216        C  0.78173721  0.83231029  0.24595821     0.85100
O217        O  0.59458920  0.72306293  0.23866821    -0.79000
O218        O  0.57971623  0.70882153  0.26196612    -0.89300
C219        C  0.66864670  0.78809130  0.20982611     0.84600
O220        O  0.57627555  0.79013408  0.26189490    -0.67500
O221        O  0.78019738  0.92863881  0.23383188    -0.86800
C222        C  0.57675745  0.80824918  0.24999447     0.85500
C223        C  0.57149092  0.69637061  0.24899551     1.07000
H224        H  0.68387858  0.87105246  0.23659021     0.38800
O225        O  0.69672948  0.85050477  0.23804576    -1.09400
O226        O  0.75761435  0.83388319  0.25621719    -0.66100
Ni227      Ni  0.71158661  0.85398550  0.25780790     1.26300
O228        O  0.60300923  0.81044322  0.23984542    -0.66300
O229        O  0.76134551  0.91878609  0.25702778    -0.78600
C230        C  0.68450294  0.84548270  0.28593743     0.84900
O231        O  0.71964943  0.85477320  0.27820552    -0.65800
Ni232      Ni  0.74407688  0.86927298  0.22428411     1.27400
Ni233      Ni  0.64623361  0.78682248  0.23789663     1.26100
H234        H  0.67563392  0.76950461  0.25865129     0.39400
O235        O  0.49532509  0.53526536  0.05498402    -0.80600
O236        O  0.53871235  0.59389976  0.11582332    -0.65200
O237        O  0.55591855  0.57997623  0.07678750    -1.11800
C238        C  0.52321069  0.42805090  0.09187740     1.06300
O239        O  0.58887367  0.57026568  0.12156023    -0.78500
O240        O  0.62041675  0.53116567  0.10241379    -0.66000
Ni241      Ni  0.52561700  0.59705142  0.06281870     1.34900
C242        C  0.63334977  0.53825807  0.08956354     0.85100
O243        O  0.56002053  0.65225268  0.09375577    -0.79000
O244        O  0.55411378  0.65974402  0.07021062    -0.89300
C245        C  0.56780493  0.59299649  0.12441875     0.84600
O246        O  0.46848393  0.57959254  0.07229934    -0.67500
O247        O  0.53722044  0.44737967  0.10402774    -0.86800
C248        C  0.45365106  0.56545914  0.08470509     0.85500
C249        C  0.56325999  0.67648201  0.08274616     1.07000
H250        H  0.49874528  0.50482912  0.09964076     0.38800
O251        O  0.53173603  0.52434423  0.09768257    -1.09400
O252        O  0.60589522  0.53361306  0.07933375    -0.66100
Ni253      Ni  0.53992375  0.51512755  0.07813104     1.26300
O254        O  0.47974659  0.56590576  0.09468504    -0.66300
O255        O  0.52317346  0.45019213  0.08067904    -0.78600
C256        C  0.51842070  0.51769219  0.04977571     0.84900
O257        O  0.54413553  0.50878502  0.05786959    -0.65800
Ni258      Ni  0.56256401  0.50955365  0.11202184     1.27400
Ni259      Ni  0.54587731  0.58807641  0.09612122     1.26100
H260        H  0.58911440  0.59889839  0.07503514     0.39400
O261        O  0.52986729  0.00276226  0.05932154    -0.80600
O262        O  0.47604973  0.98405705  0.12004382    -0.65200
O263        O  0.48363354  0.01495179  0.08111555    -1.11800
C264        C  0.62873045  0.14344499  0.09541919     1.06300
O265        O  0.48947428  0.05526560  0.12550630    -0.78500
O266        O  0.51984814  0.12548873  0.10599463    -0.66000
Ni267      Ni  0.46891476  0.96817797  0.06721017     1.34900
C268        C  0.51470708  0.13158807  0.09297049     0.85100
O269        O  0.41826286  0.94216798  0.09845193    -0.79000
O270        O  0.40752579  0.93069645  0.07491990    -0.89300
C271        C  0.47008121  0.01119738  0.12813583     0.84600
O272        O  0.49041102  0.93094090  0.07649221    -0.67500
O273        O  0.60857127  0.13777484  0.10742560    -0.86800
C274        C  0.50858493  0.93334751  0.08851553     0.85500
C275        C  0.39349116  0.92035062  0.08769471     1.07000
H276        H  0.56189792  0.04064886  0.10390574     0.38800
O277        O  0.53950935  0.05068373  0.10174291    -1.09400
O278        O  0.52363240  0.11110729  0.08303344    -0.66100
Ni279      Ni  0.54643213  0.06699269  0.08211329     1.26300
O280        O  0.50829288  0.95902413  0.09846655    -0.66300
O281        O  0.60900685  0.11843133  0.08444564    -0.78600
C282        C  0.54430062  0.04287569  0.05388242     0.84900
O283        O  0.55117582  0.07713721  0.06180319    -0.65800
Ni284      Ni  0.54853445  0.09536731  0.11577677     1.27400
Ni285      Ni  0.47903498  0.99688663  0.10040444     1.26100
H286        H  0.46250597  0.02701880  0.07962181     0.39400
O287        O  0.18246410  0.81609510  0.27523222    -0.80600
O288        O  0.24004788  0.86112117  0.21204055    -0.65200
O289        O  0.22866120  0.87237695  0.25190129    -1.11800
C290        C  0.07869676  0.84844114  0.23858446     1.06300
O291        O  0.21378157  0.91002891  0.20724460    -0.78500
O292        O  0.17720106  0.94127442  0.22668795    -0.66000
Ni293      Ni  0.23841992  0.83331705  0.26479810     1.34900
C294        C  0.19146730  0.95656961  0.23908627     0.85100
O295        O  0.29751190  0.87499119  0.23369831    -0.79000
O296        O  0.29573058  0.84709193  0.25561130    -0.89300
C297        C  0.23881621  0.89180697  0.20412001     0.84600
O298        O  0.20348553  0.77604199  0.25473449    -0.67500
O299        O  0.09446677  0.85730312  0.22594862    -0.86800
C300        C  0.19715921  0.76625327  0.24167520     0.85500
C301        C  0.31588885  0.86367176  0.24377993     1.07000
H302        H  0.15140284  0.81945576  0.22981454     0.38800
O303        O  0.17208073  0.85282558  0.23138425    -1.09400
O304        O  0.19121703  0.93070506  0.24927038    -0.66100
Ni305      Ni  0.16657228  0.86329536  0.25105857     1.26300
O306        O  0.21086219  0.79737175  0.23204203    -0.66300
O307        O  0.10361136  0.85228081  0.24944687    -0.78600
C308        C  0.16871167  0.84348271  0.27976114     0.84900
O309        O  0.16387535  0.87103828  0.27126129    -0.65800
Ni310      Ni  0.15492988  0.88272864  0.21728788     1.27400
Ni311      Ni  0.23492399  0.86453511  0.23207567     1.26100
H312        H  0.25021445  0.90440498  0.25435388     0.39400
O313        O  0.85234698  0.64017623  0.72176529    -0.80600
O314        O  0.78561739  0.62164955  0.78247506    -0.65200
O315        O  0.80338960  0.65083238  0.74319022    -1.11800
C316        C  0.95329221  0.77087504  0.75931999     1.06300
O317        O  0.81081967  0.69601713  0.78788834    -0.78500
O318        O  0.85438188  0.76722022  0.76932282    -0.66000
Ni319      Ni  0.79179049  0.60301393  0.72979477     1.34900
C320        C  0.84418505  0.77158877  0.75664828     0.85100
O321        O  0.73020669  0.58386759  0.75996244    -0.79000
O322        O  0.73016463  0.56307396  0.73723382    -0.89300
C323        C  0.78633910  0.65230762  0.79071774     0.84600
O324        O  0.81725668  0.57085118  0.74007953    -0.67500
O325        O  0.93443638  0.76246741  0.77157212    -0.86800
C326        C  0.82461390  0.56799645  0.75311406     0.85500
C327        C  0.71006350  0.55834999  0.74913907     1.07000
H328        H  0.87634305  0.66892810  0.76637522     0.38800
O329        O  0.85704739  0.68291067  0.76448645    -1.09400
O330        O  0.84544436  0.74697967  0.74641628    -0.66100
Ni331      Ni  0.86682253  0.70165047  0.74497569     1.26300
O332        O  0.81516853  0.58899324  0.76264249    -0.66300
O333        O  0.93083537  0.75159918  0.74787047    -0.78600
C334        C  0.86447226  0.68005236  0.71644935     0.84900
O335        O  0.87253195  0.71399017  0.72471409    -0.65800
Ni336      Ni  0.87212291  0.72775797  0.77903455     1.27400
Ni337      Ni  0.79358104  0.63372798  0.76269028     1.26100
H338        H  0.78348459  0.66361637  0.74067259     0.39400
O339        O  0.52528717  0.49356696  0.94141209    -0.80600
O340        O  0.57437867  0.52869240  0.87946878    -0.65200
O341        O  0.56494660  0.54993855  0.91850731    -1.11800
C342        C  0.41074426  0.51356694  0.90534811     1.06300
O343        O  0.54612129  0.57518278  0.87357570    -0.78500
O344        O  0.50975831  0.60835558  0.89257805    -0.66000
Ni345      Ni  0.58515121  0.52297469  0.93265410     1.34900
C346        C  0.51950657  0.62362080  0.90516532     0.85100
O347        O  0.63500369  0.55274540  0.90089553    -0.79000
O348        O  0.64608631  0.55058114  0.92439129    -0.89300
C349        C  0.57238772  0.55784636  0.87104523     0.84600
O350        O  0.56630328  0.46404559  0.92394548    -0.67500
O351        O  0.42749387  0.52413573  0.89282671    -0.86800
C352        C  0.55030573  0.44681425  0.91186129     0.85500
C353        C  0.66073736  0.55768723  0.91165273     1.07000
H354        H  0.48726077  0.48778502  0.89699600     0.38800
O355        O  0.50631185  0.52137769  0.89839182    -1.09400
O356        O  0.51746041  0.59830106  0.91571894    -0.66100
Ni357      Ni  0.50000018  0.53276883  0.91793371     1.26300
O358        O  0.54985412  0.47115514  0.90143161    -0.66300
O359        O  0.43482427  0.51540389  0.91626794    -0.78600
C360        C  0.50819956  0.51732671  0.94648024     0.84900
O361        O  0.49721673  0.54103719  0.93815749    -0.65800
Ni362      Ni  0.48764732  0.54869178  0.88391129     1.27400
Ni363      Ni  0.57055978  0.53730611  0.89921743     1.26100
H364        H  0.58350687  0.58362629  0.91976517     0.39400
O365        O  0.37741579  0.19840060  0.72454681    -0.80600
O366        O  0.40067085  0.15778521  0.78477432    -0.65200
O367        O  0.36781003  0.13945637  0.74582327    -1.11800
C368        C  0.24514572  0.16601831  0.76095073     1.06300
O369        O  0.32738546  0.10648387  0.79050833    -0.78500
O370        O  0.25528595  0.07203765  0.77196498    -0.66000
Ni371      Ni  0.41306506  0.17184285  0.73168140     1.34900
C372        C  0.25005942  0.05827674  0.75919340     0.85100
O373        O  0.43949834  0.14010890  0.76234371    -0.79000
O374        O  0.45105736  0.14721642  0.73872215    -0.89300
C375        C  0.37121138  0.12692125  0.79308650     0.84600
O376        O  0.45058616  0.23003462  0.74098091    -0.67500
O377        O  0.25245005  0.15445151  0.77328323    -0.86800
C378        C  0.45172996  0.24485001  0.75339950     0.85500
C379        C  0.46081109  0.13907822  0.75115058     1.07000
H380        H  0.34813141  0.19538426  0.76849189     0.38800
O381        O  0.33577867  0.16221103  0.76672277    -1.09400
O382        O  0.27254452  0.08539474  0.74892530    -0.66100
Ni383      Ni  0.31693402  0.15213480  0.74728093     1.26300
O384        O  0.42840522  0.21804697  0.76355465    -0.66300
O385        O  0.26703823  0.16582324  0.74983409    -0.78600
C386        C  0.33808341  0.17157308  0.71902437     0.84900
O387        O  0.30420599  0.14521534  0.72709485    -0.65800
Ni388      Ni  0.29136524  0.13118580  0.78120932     1.27400
Ni389      Ni  0.38719597  0.15080325  0.76503943     1.26100
H390        H  0.35508814  0.10619066  0.74407314     0.39400
O391        O  0.53838429  0.06331516  0.94589505    -0.80600
O392        O  0.52546352  0.07095390  0.88304205    -0.65200
O393        O  0.48819626  0.04008487  0.92128928    -1.11800
C394        C  0.52291088  0.91880657  0.91280497     1.06300
O395        O  0.47542718  0.99716078  0.87727746    -0.78500
O396        O  0.43290613  0.93007771  0.89715738    -0.66000
Ni397      Ni  0.50654603  0.08779442  0.93497040     1.34900
C398        C  0.41731961  0.92286723  0.90971568     0.85100
O399        O  0.49525476  0.10940071  0.90194612    -0.79000
O400        O  0.47697431  0.11587306  0.92438285    -0.89300
C401        C  0.49727017  0.04095127  0.87428483     0.84600
O402        O  0.56600114  0.13215818  0.92759735    -0.67500
O403        O  0.51133241  0.92232478  0.90009981    -0.86800
C404        C  0.59023071  0.13045969  0.91750493     0.85500
C405        C  0.48147914  0.12759140  0.91133368     1.07000
H406        H  0.55515605  0.02111352  0.90244311     0.38800
O407        O  0.52178987  0.00828285  0.90337575    -1.09400
O408        O  0.44253808  0.94396804  0.92047359    -0.66100
Ni409      Ni  0.50704324  0.99335308  0.92293576     1.26300
O410        O  0.57282992  0.10134750  0.90734032    -0.66300
O411        O  0.52489646  0.94544391  0.92301836    -0.78600
C412        C  0.51960826  0.02238765  0.95116879     0.84900
O413        O  0.49748123  0.98621738  0.94326397    -0.65800
Ni414      Ni  0.49410797  0.96135676  0.88938200     1.27400
Ni415      Ni  0.50841682  0.05835616  0.90240447     1.26100
H416        H  0.45441853  0.02410650  0.92108749     0.39400
O417        O  0.99359080  0.53851506  0.94168575    -0.80600
O418        O  0.97071663  0.46068141  0.88245856    -0.65200
O419        O  0.00080928  0.48380943  0.92156830    -1.11800
C420        C  0.12487109  0.62957715  0.90430132     1.06300
O421        O  0.04433181  0.48334133  0.87730389    -0.78500
O422        O  0.11650215  0.52773596  0.89546102    -0.66000
Ni423      Ni  0.95485036  0.47611445  0.93494748     1.34900
C424        C  0.12047901  0.51851155  0.90828926     0.85100
O425        O  0.93140199  0.40994944  0.90569168    -0.79000
O426        O  0.91309022  0.41325542  0.92848237    -0.89300
C427        C  0.00063628  0.45744145  0.87492437     0.84600
O428        O  0.92297946  0.50043570  0.92420750    -0.67500
O429        O  0.11532081  0.60993587  0.89211049    -0.86800
C430        C  0.92001434  0.50705041  0.91114161     0.85500
C431        C  0.90621105  0.39179022  0.91667180     1.07000
H432        H  0.02162270  0.55483743  0.89751587     0.38800
O433        O  0.03418322  0.53445346  0.89973535    -1.09400
O434        O  0.09620590  0.52153416  0.91830173    -0.66100
Ni435      Ni  0.05328052  0.54608957  0.91916073     1.26300
O436        O  0.94069923  0.49678306  0.90169912    -0.66300
O437        O  0.10474384  0.60845034  0.91576581    -0.78600
C438        C  0.03279757  0.55039400  0.94723650     0.84900
O439        O  0.06594189  0.55481717  0.93933561    -0.65800
Ni440      Ni  0.07825332  0.54624969  0.88532414     1.27400
Ni441      Ni  0.98301655  0.47192089  0.90220001     1.26100
H442        H  0.01222910  0.46296643  0.92438648     0.39400
O443        O  0.82995246  0.17917012  0.72797611    -0.80600
O444        O  0.85568412  0.22741967  0.78971504    -0.65200
O445        O  0.88371581  0.22198731  0.75101550    -1.11800
C446        C  0.85265399  0.06868240  0.76377462     1.06300
O447        O  0.90313204  0.20153078  0.79660587    -0.78500
O448        O  0.94204418  0.16893490  0.77806500    -0.66000
Ni449      Ni  0.85490286  0.23913007  0.73661608     1.34900
C450        C  0.95978169  0.18039867  0.76580630     0.85100
O451        O  0.88133884  0.29007637  0.76848995    -0.79000
O452        O  0.87858663  0.29986418  0.74490952    -0.89300
C453        C  0.88261848  0.22513447  0.79888402     0.84600
O454        O  0.79471163  0.21678466  0.74470999    -0.67500
O455        O  0.86060418  0.08452656  0.77644821    -0.86800
C456        C  0.77749932  0.20099376  0.75679241     0.85500
C457        C  0.88579786  0.31530582  0.75758570     1.07000
H458        H  0.82173656  0.14148250  0.77160134     0.38800
O459        O  0.85515711  0.16198525  0.77077429    -1.09400
O460        O  0.93630470  0.17858100  0.75476336    -0.66100
Ni461      Ni  0.87040735  0.15789573  0.75142370     1.26300
O462        O  0.80210647  0.20216669  0.76731192    -0.66300
O463        O  0.85587882  0.09338896  0.75287694    -0.78600
C464        C  0.85702071  0.16634671  0.72281928     0.84900
O465        O  0.88164671  0.15684940  0.73122454    -0.65800
Ni466      Ni  0.88114728  0.14387664  0.78575749     1.27400
Ni467      Ni  0.86809468  0.22568184  0.77013373     1.26100
H468        H  0.91708440  0.24241429  0.75002500     0.39400
C469        C  0.89836402  0.30509070  0.83056458     0.16300
C470        C  0.89521629  0.33530407  0.84045102    -0.32700
C471        C  0.93509885  0.36402900  0.84864151     0.20700
C472        C  0.97610821  0.36244036  0.84710603     0.02900
C473        C  0.97874586  0.33117356  0.83756842    -0.22500
C474        C  0.93903625  0.30270017  0.82933250     0.12100
S475        S  0.85587915  0.27133747  0.81853581    -0.06100
C476        C  0.89319787  0.25355165  0.81187101    -0.09600
C477        C  0.93594137  0.27249099  0.81881675    -0.26200
S478        S  0.02151528  0.40202390  0.85731879    -0.03400
C479        C  0.98488005  0.42070830  0.86392195    -0.16900
C480        C  0.93972952  0.39704822  0.85843193    -0.14900
H481        H  0.86358737  0.33741358  0.84139818     0.20500
H482        H  0.01083699  0.33009442  0.83631953     0.16600
H483        H  0.96426445  0.26660813  0.81578912     0.19100
H484        H  0.91202043  0.40404852  0.86131425     0.12400
C485        C  0.22536295  0.75622778  0.90003911     0.16300
C486        C  0.26162582  0.79834030  0.89461974    -0.32700
C487        C  0.29732064  0.82793260  0.90393494     0.20700
C488        C  0.29669173  0.81692084  0.91814377     0.02900
C489        C  0.25959930  0.77511608  0.92368004    -0.22500
C490        C  0.22422768  0.74484115  0.91424529     0.12100
S491        S  0.18222414  0.71342024  0.88997725    -0.06100
C492        C  0.16224538  0.67923124  0.90499791    -0.09600
C493        C  0.18752517  0.70072679  0.91720683    -0.26200
S494        S  0.34612454  0.85573376  0.92725481    -0.03400
C495        C  0.36795866  0.88624440  0.91162747    -0.16900
C496        C  0.33764778  0.86766060  0.90019987    -0.14900
H497        H  0.26314961  0.80661662  0.88345384     0.20500
H498        H  0.25943134  0.76558025  0.93467706     0.16600
H499        H  0.18100210  0.68399269  0.92750080     0.19100
H500        H  0.34590216  0.88089564  0.88945696     0.12400
C501        C  0.71776207  0.22025333  0.92538701     0.16300
C502        C  0.75902146  0.25449556  0.93177945    -0.32700
C503        C  0.79663781  0.28269104  0.92295028     0.20700
C504        C  0.79398117  0.27631683  0.90840026     0.02900
C505        C  0.75293033  0.24092868  0.90200825    -0.22500
C506        C  0.71465401  0.21342463  0.91084146     0.12100
S507        S  0.66700201  0.18696735  0.93424290    -0.06100
C508        C  0.64072486  0.16356304  0.91821677    -0.09600
C509        C  0.67033454  0.18014554  0.90663983    -0.26200
S510        S  0.84205568  0.31772556  0.89949985    -0.03400
C511        C  0.86515470  0.34433576  0.91555590    -0.16900
C512        C  0.83743712  0.32120332  0.92711943    -0.14900
H513        H  0.76090773  0.26054473  0.94309072     0.20500
H514        H  0.75018849  0.23661724  0.89062169     0.16600
H515        H  0.65956733  0.17008676  0.89576141     0.19100
H516        H  0.84531105  0.33363284  0.93794411     0.12400
C517        C  0.14388943  0.18950676  0.75265134     0.16300
C518        C  0.10447567  0.18934530  0.74677109    -0.32700
C519        C  0.07477021  0.19581106  0.75599569     0.20700
C520        C  0.08512468  0.20392019  0.77031492     0.02900
C521        C  0.12488971  0.20508845  0.77611598    -0.22500
C522        C  0.15334222  0.19667848  0.76702879     0.12100
S523        S  0.18118379  0.17678312  0.74365028    -0.06100
C524        C  0.20855128  0.17938049  0.75952782    -0.09600
C525        C  0.19029577  0.19099990  0.77102490    -0.26200
S526        S  0.04305234  0.20610402  0.78006788    -0.03400
C527        C  0.00987414  0.19445073  0.76484882    -0.16900
C528        C  0.03165749  0.19084953  0.75273584    -0.14900
H529        H  0.09599788  0.18197058  0.73564636     0.20500
H530        H  0.13184381  0.20963277  0.78738908     0.16600
H531        H  0.20228523  0.19339719  0.78185079     0.19100
H532        H  0.01541110  0.18144931  0.74237108     0.12400
C533        C  0.64785225  0.15663134  0.76521127     0.16300
C534        C  0.60551382  0.14960551  0.77094295    -0.32700
C535        C  0.56807554  0.13812178  0.76152678     0.20700
C536        C  0.57216032  0.13174376  0.74720434     0.02900
C537        C  0.61376827  0.13736459  0.74158620    -0.22500
C538        C  0.65164755  0.15110237  0.75082495     0.12100
S539        S  0.69953609  0.17716887  0.77432785    -0.06100
C540        C  0.72649583  0.18025869  0.75843062    -0.09600
C541        C  0.69638834  0.16438095  0.74690986    -0.26200
S542        S  0.52580440  0.12368111  0.73716402    -0.03400
C543        C  0.50073055  0.13061973  0.75225385    -0.16900
C544        C  0.52660221  0.13684946  0.76454690    -0.14900
H545        H  0.60284122  0.15577747  0.78206191     0.20500
H546        H  0.61745667  0.13436055  0.73030937     0.16600
H547        H  0.70706285  0.16431639  0.73608714     0.19100
H548        H  0.51753901  0.14411469  0.77487003     0.12400
C549        C  0.39941067  0.06893498  0.82398715     0.16300
C550        C  0.39898575  0.03804160  0.83432854    -0.32700
C551        C  0.43840921  0.05408263  0.84308416     0.20700
C552        C  0.47658377  0.09904930  0.84173166     0.02900
C553        C  0.47748353  0.12967518  0.83113386    -0.22500
C554        C  0.43803635  0.11346216  0.82228265     0.12100
S555        S  0.35418173  0.05638868  0.81269389    -0.06100
C556        C  0.38785020  0.11132408  0.80532313    -0.09600
C557        C  0.43180635  0.13785595  0.81143245    -0.26200
S558        S  0.51926509  0.11276865  0.85422616    -0.03400
C559        C  0.48547054  0.05700296  0.86112960    -0.16900
C560        C  0.44362184  0.02962687  0.85402815    -0.14900
H561        H  0.36890765  0.00320799  0.83563279     0.20500
H562        H  0.50723530  0.16478447  0.82998356     0.16600
H563        H  0.45760585  0.17309469  0.80816332     0.19100
H564        H  0.41738897  0.99430624  0.85709825     0.12400
C565        C  0.82900781  0.53973466  0.89869143     0.16300
C566        C  0.78895666  0.53820855  0.89287326    -0.32700
C567        C  0.76687758  0.55763586  0.90088159     0.20700
C568        C  0.78500760  0.57921416  0.91380852     0.02900
C569        C  0.82581460  0.58228980  0.91933456    -0.22500
C570        C  0.84656546  0.56114696  0.91166244     0.12100
S571        S  0.85643934  0.51128237  0.89197425    -0.06100
C572        C  0.89037760  0.52705136  0.90709504    -0.09600
C573        C  0.88184877  0.55431828  0.91644648    -0.26200
S574        S  0.74992918  0.59389655  0.92301921    -0.03400
C575        C  0.70957832  0.56975832  0.90952205    -0.16900
C576        C  0.72377685  0.55300299  0.89821524    -0.14900
H577        H  0.77378435  0.51973124  0.88306490     0.20500
H578        H  0.83875761  0.59726426  0.92970823     0.16600
H579        H  0.89860333  0.56598349  0.92669103     0.19100
H580        H  0.70179860  0.53411275  0.88926407     0.12400
C581        C  0.28308747  0.48399500  0.90196846     0.16300
C582        C  0.24076770  0.47713587  0.89637747    -0.32700
C583        C  0.21305342  0.48809087  0.90496503     0.20700
C584        C  0.22589788  0.50381262  0.91873938     0.02900
C585        C  0.26806695  0.50969460  0.92449772    -0.22500
C586        C  0.29671296  0.50001725  0.91569981     0.12100
S587        S  0.32391546  0.47898553  0.89236536    -0.06100
C588        C  0.36078723  0.49951004  0.90681647    -0.09600
C589        C  0.34133137  0.50839407  0.91864032    -0.26200
S590        S  0.18876151  0.51912521  0.92682306    -0.03400
C591        C  0.15662040  0.50530355  0.91130499    -0.16900
C592        C  0.17359530  0.48866666  0.90071096    -0.14900
H593        H  0.23105371  0.46615042  0.88549451     0.20500
H594        H  0.27915901  0.52345937  0.93508325     0.16600
H595        H  0.35996486  0.52338703  0.92844219     0.19100
H596        H  0.15926678  0.47994373  0.89008899     0.12400
C597        C  0.49216741  0.24352634  0.89898083     0.16300
C598        C  0.51098107  0.28906581  0.89321303    -0.32700
C599        C  0.51083703  0.32407211  0.90177023     0.20700
C600        C  0.49149436  0.31346914  0.91522175     0.02900
C601        C  0.47097271  0.26786974  0.92066266    -0.22500
C602        C  0.47251216  0.23352579  0.91237684     0.12100
S603        S  0.49745931  0.19859290  0.89175864    -0.06100
C604        C  0.47471303  0.16721430  0.90723018    -0.09600
C605        C  0.46147759  0.18967193  0.91699500    -0.26200
S606        S  0.49926664  0.36054920  0.92477689    -0.03400
C607        C  0.52888242  0.39555767  0.91058860    -0.16900
C608        C  0.53184458  0.37158514  0.89890131    -0.14900
H609        H  0.52778341  0.29752726  0.88296063     0.20500
H610        H  0.45736021  0.26023706  0.93134601     0.16600
H611        H  0.44915632  0.17675438  0.92758095     0.19100
H612        H  0.55029707  0.38815459  0.88923029     0.12400
C613        C  0.54977094  0.75222905  0.90376093     0.16300
C614        C  0.55985207  0.79685252  0.89911794    -0.32700
C615        C  0.54789415  0.82321220  0.90801688     0.20700
C616        C  0.52736986  0.80646939  0.92110443     0.02900
C617        C  0.51776457  0.76178441  0.92586035    -0.22500
C618        C  0.52930629  0.73500696  0.91684255     0.12100
S619        S  0.55735941  0.71346012  0.89376808    -0.06100
C620        C  0.53265261  0.67315753  0.90728766    -0.09600
C621        C  0.51986620  0.68954171  0.91901459    -0.26200
S622        S  0.51225860  0.84301287  0.92969707    -0.03400
C623        C  0.53315094  0.88048163  0.91534039    -0.16900
C624        C  0.55142805  0.86545984  0.90471243    -0.14900
H625        H  0.57476030  0.80976443  0.88875644     0.20500
H626        H  0.50060725  0.74786237  0.93589684     0.16600
H627        H  0.50198682  0.66841252  0.92819391     0.19100
H628        H  0.56423343  0.88334139  0.89467408     0.12400
C629        C  0.08197639  0.86439896  0.76487642     0.16300
C630        C  0.12384840  0.89870748  0.77102887    -0.32700
C631        C  0.15511368  0.93606066  0.76246734     0.20700
C632        C  0.14621889  0.93833386  0.74821329     0.02900
C633        C  0.10479983  0.90290203  0.74190145    -0.22500
C634        C  0.07243326  0.86632961  0.75064650     0.12100
S635        S  0.03691723  0.82114835  0.77417212    -0.06100
C636        C  0.00390132  0.80548227  0.75885902    -0.09600
C637        C  0.02764270  0.83195105  0.74705167    -0.26200
S638        S  0.18635190  0.98972581  0.74016946    -0.03400
C639        C  0.21420239  0.00876379  0.75632891    -0.16900
C640        C  0.19408480  0.97588763  0.76711394    -0.14900
H641        H  0.13035260  0.89799865  0.78225547     0.20500
H642        H  0.09682425  0.90535401  0.73090308     0.16600
H643        H  0.01205709  0.82833103  0.73668028     0.19100
H644        H  0.20546352  0.98211826  0.77806599     0.12400
C645        C  0.53901829  0.37341916  0.76295401     0.16300
C646        C  0.57606798  0.41478923  0.76873772    -0.32700
C647        C  0.60127011  0.45307890  0.75953131     0.20700
C648        C  0.58872911  0.45081185  0.74538555     0.02900
C649        C  0.55076542  0.41035278  0.73978030    -0.22500
C650        C  0.52718066  0.37159011  0.74877162     0.12100
S651        S  0.50880500  0.32046167  0.77159445    -0.06100
C652        C  0.48169123  0.29575626  0.75573547    -0.09600
C653        C  0.49426514  0.32744391  0.74463146    -0.26200
S654        S  0.62706798  0.49729161  0.73538309    -0.03400
C655        C  0.66136098  0.51989116  0.75026749    -0.16900
C656        C  0.64271989  0.49340429  0.76247732    -0.14900
H657        H  0.58684749  0.41593554  0.77964651     0.20500
H658        H  0.54225543  0.40794451  0.72861026     0.16600
H659        H  0.48169286  0.31812280  0.73384791     0.19100
H660        H  0.66062742  0.50094121  0.77259471     0.12400
C661        C  0.82091951  0.93964370  0.76591523     0.16300
C662        C  0.81196401  0.89579908  0.77088485    -0.32700
C663        C  0.81914626  0.86700722  0.76158413     0.20700
C664        C  0.83346152  0.88035332  0.74774172     0.02900
C665        C  0.84117258  0.92406522  0.74258311    -0.22500
C666        C  0.83510739  0.95367022  0.75208435     0.12100
S667        S  0.81996734  0.98128915  0.77633228    -0.06100
C668        C  0.83930207  0.01885814  0.76204036    -0.09600
C669        C  0.84515612  0.99929743  0.74971128    -0.26200
S670        S  0.84527063  0.84182698  0.73883696    -0.03400
C671        C  0.83191104  0.80859738  0.75413177    -0.16900
C672        C  0.81763237  0.82597393  0.76520429    -0.14900
H673        H  0.80227099  0.88560654  0.78181172     0.20500
H674        H  0.85366123  0.93548441  0.73191994     0.16600
H675        H  0.85848075  0.01817611  0.73984910     0.19100
H676        H  0.80975211  0.81107096  0.77576946     0.12400
C677        C  0.86381893  0.48319138  0.76730954     0.16300
C678        C  0.86576990  0.44609274  0.77418979    -0.32700
C679        C  0.88554819  0.42322748  0.76674753     0.20700
C680        C  0.90499935  0.43865458  0.75344303     0.02900
C681        C  0.90463394  0.47667444  0.74683919    -0.22500
C682        C  0.88227978  0.49738594  0.75385612     0.12100
S683        S  0.83426045  0.51021127  0.77335751    -0.06100
C684        C  0.84503274  0.53880833  0.75728057    -0.09600
C685        C  0.87168861  0.52922628  0.74807881    -0.26200
S686        S  0.92028889  0.40262817  0.74505643    -0.03400
C687        C  0.89809898  0.36473559  0.75923518    -0.16900
C688        C  0.88239784  0.38097453  0.77029041    -0.14900
H689        H  0.84920036  0.43317662  0.78435935     0.20500
H690        H  0.91751794  0.48693254  0.73614564     0.16600
H691        H  0.88105461  0.54325792  0.73744558     0.19100
H692        H  0.86467451  0.36055140  0.77959557     0.12400
C693        C  0.65261898  0.61784339  0.83917714     0.16300
C694        C  0.67907103  0.64806188  0.82813262    -0.32700
C695        C  0.70745645  0.63583155  0.82027077     0.20700
C696        C  0.70897849  0.59506922  0.82318757     0.02900
C697        C  0.68330119  0.56543008  0.83440080    -0.22500
C698        C  0.65525442  0.57783188  0.84232733     0.12100
S699        S  0.61522421  0.62571567  0.84975208    -0.06100
C700        C  0.60353205  0.57491806  0.85864987    -0.09600
C701        C  0.62756153  0.55332262  0.85358291    -0.26200
S702        S  0.74316837  0.58477129  0.81192521    -0.03400
C703        C  0.75657195  0.63650149  0.80338171    -0.16900
C704        C  0.73530410  0.66018872  0.80900373    -0.14900
H705        H  0.67730587  0.67948228  0.82570337     0.20500
H706        H  0.68473621  0.53378321  0.83674920     0.16600
H707        H  0.62480906  0.52133120  0.85787802     0.19100
H708        H  0.73894246  0.69266991  0.80481142     0.12400
C709        C  0.55918422  0.06529250  0.01372114     0.16300
C710        C  0.56448046  0.08284260  0.99990618    -0.32700
C711        C  0.54809569  0.05013519  0.98875050     0.20700
C712        C  0.52796784  0.00214513  0.99107797     0.02900
C713        C  0.52391493  0.98471385  0.00486897    -0.22500
C714        C  0.53966635  0.01735128  0.01603964     0.12100
S715        S  0.57206635  0.09834753  0.02888401    -0.06100
C716        C  0.55073762  0.04682347  0.03840055    -0.09600
C717        C  0.53541007  0.00676312  0.03011314    -0.26200
S718        S  0.50735970  0.96834940  0.97604845    -0.03400
C719        C  0.52610968  0.01960278  0.96656166    -0.16900
C720        C  0.54748317  0.06024361  0.97477012    -0.14900
H721        H  0.57913881  0.12016800  0.99795017     0.20500
H722        H  0.50769527  0.94724589  0.00685816     0.16600
H723        H  0.51977948  0.97114743  0.03418314     0.19100
H724        H  0.56088219  0.09567305  0.97074569     0.12400
C725        C  0.31919199  0.95562546  0.17262588     0.16300
C726        C  0.34709535  0.98864535  0.16236521    -0.32700
C727        C  0.37955233  0.98069558  0.15513593     0.20700
C728        C  0.38312099  0.94087487  0.15769479     0.02900
C729        C  0.35525098  0.90784698  0.16799330    -0.22500
C730        C  0.32364040  0.91647961  0.17550553     0.12100
S731        S  0.27941314  0.96025676  0.18296602    -0.06100
C732        C  0.26944333  0.90961665  0.19159619    -0.09600
C733        C  0.29522701  0.88994069  0.18642629    -0.26200
S734        S  0.42356891  0.93697192  0.14742569    -0.03400
C735        C  0.43681162  0.99028726  0.13992487    -0.16900
C736        C  0.41059823  0.00942043  0.14505675    -0.14900
H737        H  0.34416848  0.01961296  0.16027420     0.20500
H738        H  0.35851403  0.87712782  0.17018437     0.16600
H739        H  0.29405105  0.85856996  0.19064075     0.19100
H740        H  0.41326532  0.04199474  0.14134228     0.12400
C741        C  0.52130355  0.49532220  0.00986507     0.16300
C742        C  0.53018173  0.48504534  0.99623547    -0.32700
C743        C  0.51421138  0.50045280  0.98468695     0.20700
C744        C  0.49030129  0.52485937  0.98649035     0.02900
C745        C  0.48064831  0.53436424  0.00012756    -0.22500
C746        C  0.49677815  0.51910479  0.01168206     0.12100
S747        S  0.54040596  0.48264711  0.02533658    -0.06100
C748        C  0.51490031  0.50962351  0.03433331    -0.09600
C749        C  0.49261303  0.52688672  0.02564920    -0.26200
S750        S  0.47623189  0.54255983  0.97097458    -0.03400
C751        C  0.50257993  0.51637446  0.96199808    -0.16900
C752        C  0.52099092  0.49525140  0.97072340    -0.14900
H753        H  0.54957137  0.46674649  0.99467975     0.20500
H754        H  0.46226217  0.55367777  0.00167939     0.16600
H755        H  0.47548149  0.54573432  0.02935295     0.19100
H756        H  0.53951737  0.47778741  0.96703207     0.12400
C757        C  0.55203187  0.84791076  0.09780602     0.16300
C758        C  0.55581052  0.81015547  0.10337073    -0.32700
C759        C  0.56972655  0.78597941  0.09411598     0.20700
C760        C  0.58180359  0.80044283  0.08019072     0.02900
C761        C  0.57991345  0.83923828  0.07482383    -0.22500
C762        C  0.56339324  0.86150380  0.08379749     0.12100
S763        S  0.52765032  0.87630089  0.10641731    -0.06100
C764        C  0.53093154  0.90479182  0.09074911    -0.09600
C765        C  0.55154284  0.89418923  0.07972703    -0.26200
S766        S  0.59034711  0.76277809  0.06997558    -0.03400
C767        C  0.57573213  0.72596564  0.08441328    -0.16900
C768        C  0.56712983  0.74349151  0.09669031    -0.14900
H769        H  0.54472680  0.79779405  0.11407150     0.20500
H770        H  0.58705023  0.84903311  0.06376971     0.16600
H771        H  0.55523490  0.90777579  0.06904804     0.19100
H772        H  0.55487511  0.72403957  0.10651443     0.12400
C773        C  0.50171261  0.23638156  0.08090908     0.16300
C774        C  0.51057832  0.27917863  0.07474742    -0.32700
C775        C  0.50207265  0.30977746  0.08298423     0.20700
C776        C  0.48396180  0.29741784  0.09654581     0.02900
C777        C  0.47349508  0.25402814  0.10247834    -0.22500
C778        C  0.48375064  0.22439749  0.09448473     0.12100
S779        S  0.51718903  0.19821848  0.07371517    -0.06100
C780        C  0.50076697  0.16678714  0.08935408    -0.09600
C781        C  0.48272059  0.18440550  0.09931602    -0.26200
S782        S  0.48193957  0.34124423  0.10559708    -0.03400
C783        C  0.50644686  0.37716185  0.09108902    -0.16900
C784        C  0.51427161  0.35544266  0.07967504    -0.14900
H785        H  0.52635018  0.28953452  0.06437633     0.20500
H786        H  0.46102090  0.24521416  0.11325679     0.16600
H787        H  0.47269466  0.17072585  0.10996024     0.19100
H788        H  0.53122978  0.37313125  0.06993923     0.12400
C789        C  0.88840677  0.81970580  0.25496853     0.16300
C790        C  0.93235169  0.82886227  0.26008556    -0.32700
C791        C  0.96244770  0.82422494  0.25052430     0.20700
C792        C  0.94848650  0.80940340  0.23671444     0.02900
C793        C  0.90420502  0.79853529  0.23181850    -0.22500
C794        C  0.87509577  0.80497249  0.24113078     0.12100
S795        S  0.85014145  0.83157697  0.26382117    -0.06100
C796        C  0.81725142  0.81824342  0.24848763    -0.09600
C797        C  0.83427211  0.80343610  0.23745616    -0.26200
S798        S  0.99091132  0.81113469  0.22616950    -0.03400
C799        C  0.02866271  0.83271829  0.24036472    -0.16900
C800        C  0.00860314  0.83703453  0.25277244    -0.14900
H801        H  0.94376932  0.84205199  0.27070784     0.20500
H802        H  0.89413988  0.78868936  0.22088224     0.16600
H803        H  0.81964816  0.79583723  0.22685436     0.19100
H804        H  0.02739952  0.85132350  0.26259930     0.12400
C805        C  0.49112456  0.85390497  0.25351407     0.16300
C806        C  0.45898951  0.86545229  0.25902275    -0.32700
C807        C  0.42696617  0.86710436  0.24966534     0.20700
C808        C  0.42752488  0.85914748  0.23528533     0.02900
C809        C  0.46070599  0.84850371  0.22965304    -0.22500
C810        C  0.49218311  0.84542742  0.23917630     0.12100
S811        S  0.52824021  0.84461649  0.26369602    -0.06100
C812        C  0.54552027  0.82814656  0.24863900    -0.09600
C813        C  0.52417199  0.83108765  0.23623402    -0.26200
S814        S  0.38238920  0.85905368  0.22608768    -0.03400
C815        C  0.36238697  0.86838082  0.24193773    -0.16900
C816        C  0.39013225  0.87256876  0.25349234    -0.14900
H817        H  0.45745313  0.87056335  0.27028905     0.20500
H818        H  0.46053670  0.84079620  0.21851157     0.16600
H819        H  0.52969041  0.82075154  0.22587017     0.19100
H820        H  0.38227616  0.87682654  0.26432705     0.12400
C821        C  0.65558933  0.71975316  0.17548538     0.16300
C822        C  0.66254967  0.69794114  0.16373473    -0.32700
C823        C  0.62354079  0.66907914  0.15529154     0.20700
C824        C  0.57969528  0.66300839  0.15824582     0.02900
C825        C  0.57262677  0.68440651  0.17010966    -0.22500
C826        C  0.61153511  0.71265722  0.17870861     0.12100
S827        S  0.69843593  0.75572078  0.18702679    -0.06100
C828        C  0.65660747  0.76080046  0.19652386    -0.09600
C829        C  0.61179369  0.73589565  0.19084821    -0.26200
S830        S  0.53731835  0.62831677  0.14633318    -0.03400
C831        C  0.57878120  0.62076114  0.13753463    -0.16900
C832        C  0.62312796  0.64442440  0.14351098    -0.14900
H833        H  0.69687412  0.70311349  0.16131224     0.20500
H834        H  0.53830447  0.67922763  0.17253287     0.16600
H835        H  0.58110306  0.73466594  0.19538305     0.19100
H836        H  0.65359471  0.64442122  0.13927842     0.12400
C837        C  0.18983478  0.13544861  0.25189333     0.16300
C838        C  0.18421797  0.09328804  0.25764409    -0.32700
C839        C  0.20012479  0.06796817  0.24964318     0.20700
C840        C  0.22190753  0.08477602  0.23669709     0.02900
C841        C  0.22825569  0.12722896  0.23108135    -0.22500
C842        C  0.21087538  0.15156843  0.23882712     0.12100
S843        S  0.16886285  0.16894035  0.25923103    -0.06100
C844        C  0.18737479  0.20409712  0.24433967    -0.09600
C845        C  0.20932132  0.19072147  0.23440399    -0.26200
S846        S  0.23338200  0.04666957  0.22773947    -0.03400
C847        C  0.20745355  0.00682527  0.24134485    -0.16900
C848        C  0.19237935  0.02335838  0.25248860    -0.14900
H849        H  0.16611568  0.07963363  0.26757099     0.20500
H850        H  0.24368118  0.13937329  0.22073433     0.16600
H851        H  0.22224335  0.20795853  0.22429225     0.19100
H852        H  0.17264985  0.00222232  0.26145719     0.12400
C853        C  0.15846481  0.64056537  0.22989415     0.16300
C854        C  0.15944964  0.60108042  0.22455893    -0.32700
C855        C  0.14090610  0.56055875  0.23312572     0.20700
C856        C  0.12024792  0.55884687  0.24604069     0.02900
C857        C  0.11744894  0.59736943  0.25103847    -0.22500
C858        C  0.13811545  0.63841527  0.24289002     0.12100
S859        S  0.18757886  0.69597978  0.22273259    -0.06100
C860        C  0.17404795  0.71623068  0.23779355    -0.09600
C861        C  0.14638635  0.68141696  0.24735226    -0.26200
S862        S  0.10645112  0.51031175  0.25596265    -0.03400
C863        C  0.12978161  0.49219290  0.24281954    -0.16900
C864        C  0.14570851  0.52167258  0.23108409    -0.14900
H865        H  0.17730235  0.60313851  0.21476662     0.20500
H866        H  0.10346578  0.59673561  0.26143945     0.16600
H867        H  0.13615945  0.68780561  0.25762250     0.19100
H868        H  0.16382087  0.51719725  0.22221758     0.12400
C869        C  0.94290609  0.14362915  0.23846235     0.16300
C870        C  0.90039353  0.10703291  0.23335915    -0.32700
C871        C  0.87547641  0.06762780  0.24205803     0.20700
C872        C  0.89121483  0.06509457  0.25549208     0.02900
C873        C  0.93362307  0.10231297  0.26074055    -0.22500
C874        C  0.95937519  0.14144042  0.25182658     0.12100
S875        S  0.98069327  0.19096502  0.22860695    -0.06100
C876        C  0.01993680  0.20828428  0.24247225    -0.09600
C877        C  0.00358649  0.17899716  0.25427837    -0.26200
S878        S  0.85687608  0.01226759  0.26386630    -0.03400
C879        C  0.82203156  0.99332075  0.24890117    -0.16900
C880        C  0.83605738  0.02682621  0.23825339    -0.14900
H881        H  0.88838365  0.10819400  0.22274756     0.20500
H882        H  0.94695175  0.09994175  0.27102964     0.16600
H883        H  0.02423091  0.18296429  0.26366818     0.19100
H884        H  0.81938430  0.02086793  0.22796298     0.12400
C885        C  0.45466020  0.59099784  0.23770070     0.16300
C886        C  0.41063844  0.56306281  0.23128699    -0.32700
C887        C  0.37357051  0.53149555  0.23997297     0.20700
C888        C  0.38061105  0.52756526  0.25429588     0.02900
C889        C  0.42463718  0.55419458  0.26055510    -0.22500
C890        C  0.46117133  0.58624250  0.25199314     0.12100
S891        S  0.50223971  0.63665581  0.22971684    -0.06100
C892        C  0.53034412  0.65003736  0.24593851    -0.09600
C893        C  0.50453296  0.61923790  0.25669072    -0.26200
S894        S  0.33137428  0.49133374  0.26345363    -0.03400
C895        C  0.30030397  0.48074192  0.24789180    -0.16900
C896        C  0.32723039  0.50389482  0.23613986    -0.14900
H897        H  0.40498358  0.56748714  0.22021936     0.20500
H898        H  0.42961557  0.55185655  0.27181260     0.16600
H899        H  0.51525507  0.62335470  0.26769878     0.19100
H900        H  0.31345127  0.50228308  0.22559744     0.12400
C901        C  0.99429315  0.53678234  0.01029989     0.16300
C902        C  0.97607461  0.52982467  0.99650669    -0.32700
C903        C  0.00797489  0.54502921  0.98519876     0.20700
C904        C  0.05583412  0.56625322  0.98739710     0.02900
C905        C  0.07404705  0.57410519  0.00116817    -0.22500
C906        C  0.04220735  0.55883089  0.01245665     0.12100
S907        S  0.96187701  0.51857837  0.02560250    -0.06100
C908        C  0.01368795  0.54142323  0.03494153    -0.09600
C909        C  0.05337493  0.56190010  0.02647397    -0.26200
S910        S  0.08827619  0.57914666  0.97218123    -0.03400
C911        C  0.03671971  0.55599986  0.96275958    -0.16900
C912        C  0.99696912  0.53962502  0.97112248    -0.14900
H913        H  0.93869476  0.51244757  0.99464584     0.20500
H914        H  0.11137037  0.59047152  0.00302058     0.16600
H915        H  0.08897457  0.57739931  0.03037934     0.19100
H916        H  0.96144404  0.52305097  0.96709749     0.12400
C917        C  0.24652655  0.49269051  0.07857805     0.16300
C918        C  0.28739857  0.49820419  0.07247921    -0.32700
C919        C  0.32737124  0.51611225  0.08098706     0.20700
C920        C  0.32667526  0.52643999  0.09516966     0.02900
C921        C  0.28528656  0.52036444  0.10138145    -0.22500
C922        C  0.24538830  0.50398532  0.09265247     0.12100
S923        S  0.19697797  0.47794586  0.06924427    -0.06100
C924        C  0.17430821  0.48870782  0.08422508    -0.09600
C925        C  0.20351830  0.50127002  0.09603153    -0.26200
S926        S  0.38026089  0.54971303  0.10335423    -0.03400
C927        C  0.40348568  0.54699945  0.08728214    -0.16900
C928        C  0.37104329  0.52789590  0.07643363    -0.14900
H929        H  0.28861218  0.49112746  0.06134351     0.20500
H930        H  0.28479093  0.53001371  0.11230213     0.16600
H931        H  0.19627473  0.51190683  0.10611027     0.19100
H932        H  0.37923096  0.52377526  0.06562468     0.12400
C933        C  0.75350792  0.55300227  0.07933988     0.16300
C934        C  0.78996778  0.54773056  0.07348793    -0.32700
C935        C  0.82677109  0.55376003  0.08256646     0.20700
C936        C  0.82754533  0.56572460  0.09667001     0.02900
C937        C  0.79220335  0.57243669  0.10233116    -0.22500
C938        C  0.75505784  0.56509631  0.09344705     0.12100
S939        S  0.70216821  0.54075358  0.07094259    -0.06100
C940        C  0.68253813  0.55082930  0.08678081    -0.09600
C941        C  0.71511576  0.56443943  0.09767428    -0.26200
S942        S  0.87143098  0.56644359  0.10646757    -0.03400
C943        C  0.88956090  0.55014031  0.09153956    -0.16900
C944        C  0.86297260  0.54543016  0.07947721    -0.14900
H945        H  0.78845234  0.53696903  0.06258595     0.20500
H946        H  0.79228462  0.58041931  0.11345117     0.16600
H947        H  0.70875649  0.57070735  0.10847367     0.19100
H948        H  0.86804811  0.53371855  0.06927654     0.12400
C949        C  0.21713355  0.73611471  0.07990905     0.16300
C950        C  0.24638395  0.78085864  0.07438420    -0.32700
C951        C  0.28093357  0.81390708  0.08327818     0.20700
C952        C  0.28562561  0.80349887  0.09723136     0.02900
C953        C  0.25537140  0.75876976  0.10291998    -0.22500
C954        C  0.22124677  0.72512914  0.09386150     0.12100
S955        S  0.17718017  0.69034430  0.07011305    -0.06100
C956        C  0.16555160  0.65549006  0.08488168    -0.09600
C957        C  0.19092043  0.67854039  0.09688224    -0.26200
S958        S  0.33326890  0.84736191  0.10570721    -0.03400
C959        C  0.34734246  0.87899429  0.09010013    -0.16900
C960        C  0.31579040  0.85718757  0.07919036    -0.14900
H961        H  0.24384165  0.78884647  0.06338545     0.20500
H962        H  0.25965713  0.74994811  0.11367640     0.16600
H963        H  0.18897873  0.66173853  0.10694928     0.19100
H964        H  0.31992734  0.87083693  0.06850820     0.12400
C965        C  0.75593298  0.24061313  0.09953703     0.16300
C966        C  0.79905384  0.27444894  0.10500496    -0.32700
C967        C  0.82985825  0.30976043  0.09585792     0.20700
C968        C  0.81897742  0.31119290  0.08173717     0.02900
C969        C  0.77608373  0.27614019  0.07608503    -0.22500
C970        C  0.74462494  0.24100970  0.08538458     0.12100
S971        S  0.71232616  0.19871295  0.10955175    -0.06100
C972        C  0.67793544  0.18082850  0.09458999    -0.09600
C973        C  0.69972532  0.20595322  0.08239719    -0.26200
S974        S  0.85947174  0.36084340  0.07302013    -0.03400
C975        C  0.89036538  0.37974760  0.08872746    -0.16900
C976        C  0.87079027  0.34826294  0.09982397    -0.14900
H977        H  0.80730982  0.27462531  0.11612902     0.20500
H978        H  0.76674790  0.27747004  0.06515330     0.16600
H979        H  0.68298886  0.20026825  0.07213028     0.19100
H980        H  0.88402645  0.35479452  0.11059007     0.12400
C981        C  0.11232187  0.47078192  0.15677615     0.16300
C982        C  0.14331056  0.47182016  0.16728992    -0.32700
C983        C  0.12796604  0.43213948  0.17613934     0.20700
C984        C  0.08393977  0.39297796  0.17443264     0.02900
C985        C  0.05271235  0.39228926  0.16411194    -0.22500
C986        C  0.06779675  0.43214638  0.15540893     0.12100
S987        S  0.12464343  0.51449455  0.14463373    -0.06100
C988        C  0.06880395  0.48091408  0.13784198    -0.09600
C989        C  0.04253479  0.43798385  0.14471730    -0.26200
S990        S  0.07230356  0.34784132  0.18586770    -0.03400
C991        C  0.12691668  0.38219760  0.19333991    -0.16900
C992        C  0.15261489  0.42640208  0.18709305    -0.14900
H993        H  0.17794716  0.50214908  0.16847563     0.20500
H994        H  0.01814600  0.36187218  0.16288601     0.16600
H995        H  0.00715173  0.41182540  0.14180106     0.19100
H996        H  0.18742974  0.45288648  0.19038597     0.12400
C997        C  0.84312098  0.64080447  0.65310278     0.16300
C998        C  0.84265019  0.62383349  0.66681002    -0.32700
C999        C  0.85422333  0.65543198  0.67819676     0.20700
C1000       C  0.86548715  0.70180477  0.67615449     0.02900
C1001       C  0.86626153  0.71885818  0.66245175    -0.22500
C1002       C  0.85502395  0.68735993  0.65106822     0.12100
S1003       S  0.83036501  0.60848084  0.63772971    -0.06100
C1004       C  0.84203270  0.65858580  0.62847983    -0.09600
C1005       C  0.85458182  0.69763730  0.63704743    -0.26200
S1006       S  0.87674322  0.73378230  0.69151286    -0.03400
C1007       C  0.86645085  0.68413281  0.70079612    -0.16900
C1008       C  0.85501351  0.64529964  0.69223516    -0.14900
H1009       H  0.83359446  0.58756969  0.66854375     0.20500
H1010       H  0.87513876  0.75507693  0.66072285     0.16600
H1011       H  0.86336510  0.73223917  0.63316106     0.19100
H1012       H  0.84639923  0.61076198  0.69612877     0.12400
C1013       C  0.64031861  0.84926532  0.34797202     0.16300
C1014       C  0.62376621  0.83754998  0.33407267    -0.32700
C1015       C  0.65689752  0.84954503  0.32326323     0.20700
C1016       C  0.70453931  0.87238505  0.32598446     0.02900
C1017       C  0.72121573  0.88493556  0.33989535    -0.22500
C1018       C  0.68796539  0.87275402  0.35073802     0.12100
S1019       S  0.60571069  0.83492330  0.36274297    -0.06100
C1020       C  0.65605315  0.86111801  0.37276609    -0.09600
C1021       C  0.69710554  0.88008065  0.36490071    -0.26200
S1022       S  0.73842411  0.88154449  0.31121690    -0.03400
C1023       C  0.68757913  0.85444543  0.30134770    -0.16900
C1024       C  0.64715384  0.83955705  0.30925563    -0.14900
H1025       H  0.58660063  0.81897692  0.33179263     0.20500
H1026       H  0.75833701  0.90255303  0.34221338     0.16600
H1027       H  0.73206699  0.89697519  0.36937347     0.19100
H1028       H  0.61191988  0.82138004  0.30498381     0.12400
C1029       C  0.70611791  0.74467315  0.49162670     0.16300
C1030       C  0.70408887  0.71155166  0.50148579    -0.32700
C1031       C  0.74526333  0.72220608  0.50887917     0.20700
C1032       C  0.78661156  0.76408658  0.50660516     0.02900
C1033       C  0.78896915  0.79658422  0.49644198    -0.22500
C1034       C  0.74777963  0.78590313  0.48904093     0.12100
S1035       S  0.65959607  0.73920452  0.48200985    -0.06100
C1036       C  0.69671331  0.79273799  0.47423398    -0.09600
C1037       C  0.74272717  0.81339050  0.47895405    -0.26200
S1038       S  0.83148682  0.77239607  0.51760131    -0.03400
C1039       C  0.79443067  0.71845801  0.52514962    -0.16900
C1040       C  0.74979326  0.69547559  0.51933195    -0.14900
H1041       H  0.67160751  0.67929104  0.50350478     0.20500
H1042       H  0.82123182  0.82925477  0.49461194     0.16600
H1043       H  0.77097960  0.84672510  0.47519432     0.19100
H1044       H  0.72152465  0.66206589  0.52304100     0.12400
C1045       C  0.38124899  0.19029430  0.65629876     0.16300
C1046       C  0.39835230  0.20114357  0.67018444    -0.32700
C1047       C  0.36556791  0.18455766  0.68122756     0.20700
C1048       C  0.31789985  0.15753112  0.67873155     0.02900
C1049       C  0.30078053  0.14667383  0.66484409    -0.22500
C1050       C  0.33351634  0.16407398  0.65378314     0.12100
S1051       S  0.41489109  0.20874628  0.64127349    -0.06100
C1052       C  0.36383657  0.18216826  0.63156005    -0.09600
C1053       C  0.32347104  0.15930235  0.63966017    -0.26200
S1054       S  0.28426138  0.14010883  0.69376451    -0.03400
C1055       C  0.33512771  0.17022720  0.70344655    -0.16900
C1056       C  0.37549090  0.19219756  0.69531286    -0.14900
H1057       H  0.43552121  0.22215029  0.67229811     0.20500
H1058       H  0.26357738  0.12612910  0.66272849     0.16600
H1059       H  0.28823761  0.14083994  0.63539231     0.19100
H1060       H  0.41069797  0.21220153  0.69952817     0.12400
C1061       C  0.03962928  0.87196539  0.57031911     0.16300
C1062       C  0.08099623  0.90821675  0.56440076    -0.32700
C1063       C  0.11926190  0.93339395  0.57354967     0.20700
C1064       C  0.11676424  0.92173015  0.58778631     0.02900
C1065       C  0.07614046  0.88483476  0.59356068    -0.22500
C1066       C  0.03758263  0.86112438  0.58459961     0.12100
S1067       S  0.98737490  0.84068127  0.56158731    -0.06100
C1068       C  0.96278728  0.81443944  0.57752923    -0.09600
C1069       C  0.99380784  0.82821270  0.58876310    -0.26200
S1070       S  0.16392505  0.95924435  0.59760289    -0.03400
C1071       C  0.18732534  0.99196202  0.58249258    -0.16900
C1072       C  0.16037583  0.97360169  0.57036945    -0.14900
H1073       H  0.08244649  0.91805440  0.55337939     0.20500
H1074       H  0.07375970  0.87688312  0.60477048     0.16600
H1075       H  0.98447936  0.81575755  0.59954830     0.19100
H1076       H  0.16862535  0.99071945  0.56011606     0.12400
C1077       C  0.61656786  0.46950778  0.56536251     0.16300
C1078       C  0.57712234  0.43102823  0.55950027    -0.32700
C1079       C  0.54928560  0.39343214  0.56847042     0.20700
C1080       C  0.55942548  0.39434171  0.58276738     0.02900
C1081       C  0.59895595  0.43324981  0.58869576    -0.22500
C1082       C  0.62760368  0.47066129  0.57960493     0.12100
S1083       S  0.65673758  0.51576673  0.55575564    -0.06100
C1084       C  0.69001060  0.53690159  0.57093537    -0.09600
C1085       C  0.66981412  0.50976353  0.58293502    -0.26200
S1086       S  0.52159793  0.34396450  0.59164615    -0.03400
C1087       C  0.49271655  0.32142137  0.57581681    -0.16900
C1088       C  0.51132093  0.35188129  0.56443227    -0.14900
H1089       H  0.56939332  0.42972314  0.54829558     0.20500
H1090       H  0.60779804  0.43365096  0.59976976     0.16600
H1091       H  0.68649698  0.51642668  0.59323338     0.19100
H1092       H  0.49830664  0.34369741  0.55366227     0.12400
C1093       C  0.16173742  0.81402920  0.34335330     0.16300
C1094       C  0.17287497  0.80373788  0.33005151    -0.32700
C1095       C  0.16111190  0.82120072  0.31806064     0.20700
C1096       C  0.13885882  0.84747449  0.31911233     0.02900
C1097       C  0.12644971  0.85665890  0.33244015    -0.22500
C1098       C  0.13859888  0.83945615  0.34447539     0.12100
S1099       S  0.17693926  0.79974591  0.35923672    -0.06100
C1100       C  0.15148827  0.82798456  0.36752764    -0.09600
C1101       C  0.13205427  0.84694200  0.35832159    -0.26200
S1102       S  0.13110999  0.86826014  0.30315464    -0.03400
C1103       C  0.15803260  0.84095258  0.29505751    -0.16900
C1104       C  0.17158296  0.81695211  0.30437585    -0.14900
H1105       H  0.19127145  0.78420544  0.32909313     0.20500
H1106       H  0.10938386  0.87746534  0.33342262     0.16600
H1107       H  0.11560434  0.86689117  0.36160105     0.19100
H1108       H  0.18972997  0.79842652  0.30133171     0.12400
C1109       C  0.95528981  0.83363208  0.43331475     0.16300
C1110       C  0.91615953  0.83251194  0.43963073    -0.32700
C1111       C  0.87476601  0.81464965  0.43153943     0.20700
C1112       C  0.87213503  0.79703141  0.41802692     0.02900
C1113       C  0.91059908  0.79699985  0.41191218    -0.22500
C1114       C  0.95224547  0.81654781  0.41972048     0.12100
S1115       S  0.01077833  0.85993469  0.44034869    -0.06100
C1116       C  0.02987695  0.84906611  0.42457622    -0.09600
C1117       C  0.99456829  0.82510082  0.41471996    -0.26200
S1118       S  0.82200595  0.78303559  0.40906796    -0.03400
C1119       C  0.80455100  0.80273382  0.42339723    -0.16900
C1120       C  0.83542723  0.81720121  0.43480562    -0.14900
H1121       H  0.91875034  0.84764016  0.44999606     0.20500
H1122       H  0.90906715  0.78520553  0.40112392     0.16600
H1123       H  0.00003080  0.81658817  0.40408372     0.19100
H1124       H  0.83158851  0.83325209  0.44432901     0.12400
C1125       C  0.46395607  0.89074221  0.43101605     0.16300
C1126       C  0.42975040  0.90092790  0.43566320    -0.32700
C1127       C  0.39290049  0.89184446  0.42638409     0.20700
C1128       C  0.39047292  0.87446786  0.41286932     0.02900
C1129       C  0.42579745  0.86573436  0.40800542    -0.22500
C1130       C  0.46234206  0.87384073  0.41746748     0.12100
S1131       S  0.50749084  0.89331921  0.44150124    -0.06100
C1132       C  0.52445162  0.87168804  0.42753503    -0.09600
C1133       C  0.49758785  0.86346942  0.41532910    -0.26200
S1134       S  0.33910635  0.85989361  0.40410944    -0.03400
C1135       C  0.32057940  0.87621792  0.41902074    -0.16900
C1136       C  0.35357807  0.89360534  0.42983395    -0.14900
H1137       H  0.43036544  0.91287075  0.44637947     0.20500
H1138       H  0.42355434  0.85087594  0.39761851     0.16600
H1139       H  0.50196557  0.84823483  0.40570856     0.19100
H1140       H  0.34741547  0.90328000  0.44022600     0.12400
C1141       C  0.25599194  0.04206722  0.50811285     0.16300
C1142       C  0.22282411  0.01463237  0.49780494    -0.32700
C1143       C  0.23679403  0.99455109  0.48716507     0.20700
C1144       C  0.28191514  0.00163035  0.48677877     0.02900
C1145       C  0.31549670  0.03013687  0.49687190    -0.22500
C1146       C  0.30140095  0.05002025  0.50756199     0.12100
S1147       S  0.24484018  0.06663274  0.52240829    -0.06100
C1148       C  0.30209662  0.08837262  0.52768129    -0.09600
C1149       C  0.32821886  0.07703814  0.51869211    -0.26200
S1150       S  0.29089686  0.97135510  0.47365038    -0.03400
C1151       C  0.23332727  0.94915220  0.46856084    -0.16900
C1152       C  0.20893838  0.96506242  0.47658932    -0.14900
H1153       H  0.18730503  0.00823216  0.49826709     0.20500
H1154       H  0.35069455  0.03557311  0.49661655     0.16600
H1155       H  0.36449636  0.08695718  0.52041133     0.19100
H1156       H  0.17240430  0.95441403  0.47505796     0.12400
C1157       C  0.16713918  0.31677134  0.32255295     0.16300
C1158       C  0.15948166  0.29904593  0.33644441    -0.32700
C1159       C  0.17454132  0.33166767  0.34767188     0.20700
C1160       C  0.19620267  0.37973991  0.34527913     0.02900
C1161       C  0.20440500  0.39742345  0.33142193    -0.22500
C1162       C  0.18940144  0.36489178  0.32022252     0.12100
S1163       S  0.15020605  0.28355477  0.30729957    -0.06100
C1164       C  0.17391386  0.33530207  0.29773901    -0.09600
C1165       C  0.19354573  0.37555606  0.30612475    -0.26200
S1166       S  0.20942334  0.41318686  0.36038069    -0.03400
C1167       C  0.18566899  0.36182203  0.37007423    -0.16900
C1168       C  0.16885182  0.32132132  0.36183100    -0.14900
H1169       H  0.14196942  0.26150520  0.33843095     0.20500
H1170       H  0.22114090  0.43492812  0.32943392     0.16600
H1171       H  0.20960295  0.41123716  0.30208789     0.19100
H1172       H  0.15181824  0.28575605  0.36598682     0.12400
C1173       C  0.15639383  0.15320023  0.43083088     0.16300
C1174       C  0.15834595  0.11457303  0.43657851    -0.32700
C1175       C  0.17343970  0.09055603  0.42763457     0.20700
C1176       C  0.18684681  0.10513096  0.41377874     0.02900
C1177       C  0.18586423  0.14396397  0.40820769    -0.22500
C1178       C  0.16976461  0.16695664  0.41693848     0.12100
S1179       S  0.13456329  0.18457880  0.43914636    -0.06100
C1180       C  0.14252683  0.21487789  0.42349924    -0.09600
C1181       C  0.16208938  0.20217496  0.41273743    -0.26200
S1182       S  0.19894450  0.06932810  0.40397923    -0.03400
C1183       C  0.18546455  0.03360258  0.41857339    -0.16900
C1184       C  0.17326127  0.04939725  0.43054871    -0.14900
H1185       H  0.14663052  0.10250719  0.44725957     0.20500
H1186       H  0.19493860  0.15433638  0.39725946     0.16600
H1187       H  0.16865279  0.21679718  0.40213320     0.19100
H1188       H  0.16141212  0.03002784  0.44039816     0.12400
C1189       C  0.12302902  0.61820071  0.42747228     0.16300
C1190       C  0.10932166  0.57321176  0.43258814    -0.32700
C1191       C  0.11913269  0.54415702  0.42423658     0.20700
C1192       C  0.14004974  0.55826974  0.41107146     0.02900
C1193       C  0.15177390  0.60273871  0.40560840    -0.22500
C1194       C  0.14350048  0.63265771  0.41424883     0.12100
S1195       S  0.12156042  0.66088036  0.43724072    -0.06100
C1196       C  0.14883488  0.69899208  0.42342281    -0.09600
C1197       C  0.15770545  0.67915834  0.41173668    -0.26200
S1198       S  0.15603654  0.52060384  0.40379048    -0.03400
C1199       C  0.13588642  0.48690506  0.41893711    -0.16900
C1200       C  0.11572804  0.50293784  0.42862340    -0.14900
H1201       H  0.09490808  0.56262950  0.44311738     0.20500
H1202       H  0.16963436  0.61474986  0.39557289     0.16600
H1203       H  0.17606376  0.69838332  0.40233728     0.19100
H1204       H  0.10344624  0.48774236  0.43901162     0.12400
C1205       C  0.38599108  0.56031167  0.43467114     0.16300
C1206       C  0.42636625  0.59601281  0.44106275    -0.32700
C1207       C  0.45995292  0.63081207  0.43232444     0.20700
C1208       C  0.45428602  0.63011714  0.41776868     0.02900
C1209       C  0.41401105  0.59345363  0.41127149    -0.22500
C1210       C  0.37976563  0.55864683  0.42010680     0.12100
S1211       S  0.33976401  0.51814904  0.44382168    -0.06100
C1212       C  0.31090360  0.49718298  0.42794863    -0.09600
C1213       C  0.33659011  0.52182379  0.41612276    -0.26200
S1214       S  0.49777178  0.67888117  0.40938300    -0.03400
C1215       C  0.52294435  0.70030591  0.42575828    -0.16900
C1216       C  0.49918489  0.67026789  0.43689848    -0.14900
H1217       H  0.43056169  0.59766620  0.45246521     0.20500
H1218       H  0.40878361  0.59307593  0.39993755     0.16600
H1219       H  0.32356971  0.51469311  0.40534609     0.19100
H1220       H  0.50856979  0.67817648  0.44796350     0.12400
C1221       C  0.90413903  0.13199287  0.41274049     0.16300
C1222       C  0.87085827  0.08876016  0.40713952    -0.32700
C1223       C  0.84754033  0.05128922  0.41654198     0.20700
C1224       C  0.85524519  0.05655367  0.43102642     0.02900
C1225       C  0.88849768  0.10035156  0.43671255    -0.22500
C1226       C  0.91338701  0.13774280  0.42716253     0.12100
S1227       S  0.94028810  0.17900950  0.40263292    -0.06100
C1228       C  0.97021165  0.20670131  0.41783531    -0.09600
C1229       C  0.95127068  0.18112416  0.43020058    -0.26200
S1230       S  0.82342730  0.00527023  0.44040919    -0.03400
C1231       C  0.80133313  0.97688423  0.42449349    -0.16900
C1232       C  0.81711045  0.00603007  0.41277052    -0.14900
H1233       H  0.86507316  0.08390687  0.39582059     0.20500
H1234       H  0.89612050  0.10450936  0.44794848     0.16600
H1235       H  0.96685318  0.19180569  0.44061977     0.19100
H1236       H  0.80715660  0.99451510  0.40193056     0.12400
C1237       C  0.83429598  0.18881749  0.65995898     0.16300
C1238       C  0.83495980  0.20461389  0.67377589    -0.32700
C1239       C  0.84594470  0.18298200  0.68488083     0.20700
C1240       C  0.85603184  0.14728698  0.68248484     0.02900
C1241       C  0.85493384  0.13116990  0.66866381    -0.22500
C1242       C  0.84382615  0.15275112  0.65754693     0.12100
S1243       S  0.82384177  0.21173070  0.64487299    -0.06100
C1244       C  0.83254263  0.17230553  0.63519048    -0.09600
C1245       C  0.84243754  0.14294379  0.64343270    -0.26200
S1246       S  0.86836159  0.12582229  0.69759470    -0.03400
C1247       C  0.85888786  0.16487107  0.70720364    -0.16900
C1248       C  0.84750697  0.19304533  0.69895729    -0.14900
H1249       H  0.82750191  0.23273518  0.67579409     0.20500
H1250       H  0.86261005  0.10320369  0.66663910     0.16600
H1251       H  0.84994819  0.11667015  0.63925796     0.19100
H1252       H  0.83982082  0.21920905  0.70312947     0.12400
C1253       C  0.86104799  0.40202586  0.58631720     0.16300
C1254       C  0.85533787  0.43915795  0.59144009    -0.32700
C1255       C  0.86175000  0.47492494  0.58184126     0.20700
C1256       C  0.87411613  0.47404114  0.56788438     0.02900
C1257       C  0.88078495  0.43770385  0.56288500    -0.22500
C1258       C  0.87345307  0.40167973  0.57234491     0.12100
S1259       S  0.84943452  0.35214798  0.59558908    -0.06100
C1260       C  0.86034482  0.33049297  0.58032347    -0.09600
C1261       C  0.87349768  0.36122620  0.56891792    -0.26200
S1262       S  0.87612110  0.51765809  0.55750486    -0.03400
C1263       C  0.85991312  0.53772775  0.57203457    -0.16900
C1264       C  0.85403391  0.51190106  0.58434208    -0.14900
H1265       H  0.84439058  0.43910255  0.60222828     0.20500
H1266       H  0.88919849  0.43640559  0.55188767     0.16600
H1267       H  0.87992581  0.35309317  0.55834532     0.19100
H1268       H  0.84224717  0.51824440  0.59434240     0.12400
C1269       C  0.82953593  0.97257640  0.57065008     0.16300
C1270       C  0.82434844  0.93221064  0.56384995    -0.32700
C1271       C  0.80544304  0.89031896  0.57175011     0.20700
C1272       C  0.79036013  0.88837100  0.58555120     0.02900
C1273       C  0.79444096  0.92827677  0.59219610    -0.22500
C1274       C  0.81547867  0.97047438  0.58457308     0.12100
S1275       S  0.85696139  0.02808871  0.56360813    -0.06100
C1276       C  0.85100489  0.04849200  0.57980664    -0.09600
C1277       C  0.82782538  0.01385619  0.58988547    -0.26200
S1278       S  0.77487251  0.83702287  0.59412091    -0.03400
C1279       C  0.79111672  0.81846234  0.57925675    -0.16900
C1280       C  0.80508221  0.84969913  0.56795849    -0.14900
H1281       H  0.83730968  0.93410474  0.55322010     0.20500
H1282       H  0.78474716  0.92722168  0.60318584     0.16600
H1283       H  0.82147075  0.02027101  0.60067002     0.19100
H1284       H  0.81937619  0.84529906  0.55815934     0.12400
C1285       C  0.53794927  0.12691860  0.57163418     0.16300
C1286       C  0.57477869  0.12219636  0.56618294    -0.32700
C1287       C  0.61388185  0.13530982  0.57487422     0.20700
C1288       C  0.61560281  0.15051571  0.58865263     0.02900
C1289       C  0.57801239  0.15404872  0.59427135    -0.22500
C1290       C  0.53948777  0.14269365  0.58534012     0.12100
S1291       S  0.49184127  0.12080396  0.56179450    -0.06100
C1292       C  0.47456799  0.14083362  0.57610377    -0.09600
C1293       C  0.50258842  0.15005427  0.58805992    -0.26200
S1294       S  0.66820763  0.16856094  0.59696437    -0.03400
C1295       C  0.68837039  0.15705378  0.58150669    -0.16900
C1296       C  0.65527248  0.13884511  0.57075327    -0.14900
H1297       H  0.57428550  0.11168155  0.55529798     0.20500
H1298       H  0.57993626  0.16771829  0.60482201     0.16600
H1299       H  0.49873669  0.16548377  0.59771785     0.19100
H1300       H  0.66186382  0.13069592  0.56020630     0.12400
C1301       C  0.10799640  0.22516018  0.58601057     0.16300
C1302       C  0.14896789  0.22795518  0.59131539    -0.32700
C1303       C  0.17045878  0.20862457  0.58313899     0.20700
C1304       C  0.15325761  0.18910878  0.56993780     0.02900
C1305       C  0.11290574  0.18770054  0.56438711    -0.22500
C1306       C  0.09024782  0.20547308  0.57285206     0.12100
S1307       S  0.07262829  0.23851444  0.59560845    -0.06100
C1308       C  0.03279876  0.21667597  0.58191874    -0.09600
C1309       C  0.04721987  0.20132167  0.57031629    -0.26200
S1310       S  0.18184542  0.16294244  0.56247186    -0.03400
C1311       C  0.21597095  0.17710072  0.57755033    -0.16900
C1312       C  0.20645532  0.20212365  0.58749413    -0.14900
H1313       H  0.16170080  0.24160727  0.60182347     0.20500
H1314       H  0.09815661  0.17076821  0.55435410     0.16600
H1315       H  0.02559902  0.18405659  0.56114804     0.19100
H1316       H  0.22309158  0.21245094  0.59779495     0.12400
C1317       C  0.01516171  0.31074614  0.49176736     0.16300
C1318       C  0.98723930  0.31243641  0.50266235    -0.32700
C1319       C  0.96622434  0.27398188  0.51199103     0.20700
C1320       C  0.97330719  0.23584500  0.51066203     0.02900
C1321       C  0.00065933  0.23382515  0.49962518    -0.22500
C1322       C  0.02112407  0.27199275  0.49016150     0.12100
S1323       S  0.04433891  0.35425828  0.47956968    -0.06100
C1324       C  0.06409169  0.31959217  0.47198186    -0.09600
C1325       C  0.04873958  0.27660140  0.47870790    -0.26200
S1326       S  0.94663405  0.19383867  0.52347601    -0.03400
C1327       C  0.92467489  0.22738514  0.53051748    -0.16900
C1328       C  0.93793858  0.26910391  0.52326628    -0.14900
H1329       H  0.98225675  0.34251981  0.50384665     0.20500
H1330       H  0.00592032  0.20389830  0.49850254     0.16600
H1331       H  0.05774963  0.25041941  0.47549220     0.19100
H1332       H  0.92829409  0.29499662  0.52628028     0.12400
loop_ 
_geom_bond_atom_site_label_1 
_geom_bond_atom_site_label_2 
_geom_bond_distance 
_geom_bond_site_symmetry_2 
_ccdc_geom_bond_type 
O1           Ni7   1.907       .  S
O1           C22   1.263       .  A
O2          Ni25   1.904       .  S
O2           C11   1.265       .  A
O3           Ni7   1.898       .  S
O3          Ni25   1.903       .  S
O3          Ni19   1.918       .  S
O3           H26   0.966       .  S
C4           O21   1.279       .  A
C4           O13   1.281       .  A
C4         C1295   1.478       .  S
O5          Ni24   1.950       .  S
O5           C11   1.276       .  A
O6          Ni24   1.899       .  S
O6            C8   1.269       .  A
Ni7          O10   1.919       .  S
Ni7          O12   1.901       .  S
C8           O18   1.277       .  A
C8         C1260   1.477       .  S
O9          Ni25   1.927       .  S
O9           C15   1.279       .  A
O10          C15   1.277       .  A
C11        C1327   1.479       .  S
O12          C14   1.265       .  A
O13         Ni24   1.932       .  S
C14          O20   1.266       .  A
C14        C1276   1.467       .  S
C15        C1308   1.470   1_655  S
H16          O17   0.967       .  S
O17         Ni25   1.913       .  S
O17         Ni19   1.919       .  S
O17         Ni24   1.893       .  S
O18         Ni19   1.944       .  S
Ni19         O23   1.945       .  S
Ni19         O21   1.928       .  S
O20         Ni25   1.921       .  S
C22          O23   1.276       .  A
C22        C1244   1.482       .  S
O27         Ni33   1.901       .  S
O27          C48   1.261       .  A
O28         Ni51   1.910       .  S
O28          C37   1.268       .  A
O29         Ni33   1.887       .  S
O29         Ni51   1.902       .  S
O29         Ni45   1.922       .  S
O29          H52   0.966       .  S
C30          O47   1.281       .  A
C30          O39   1.279       .  A
C30        C1212   1.478       .  S
O31         Ni50   1.943       .  S
O31          C37   1.274       .  A
O32         Ni50   1.896       .  S
O32          C34   1.268       .  A
Ni33         O36   1.906       .  S
Ni33         O38   1.893       .  S
C34          O44   1.272       .  A
C34        C1199   1.468       .  S
O35         Ni51   1.933       .  S
O35          C41   1.279       .  A
O36          C41   1.276       .  A
C37        C1324   1.478       .  S
O38          C40   1.266       .  A
O39         Ni50   1.926       .  S
C40          O46   1.267       .  A
C40        C1180   1.461       .  S
C41        C1228   1.471   1_455  S
H42          O43   0.966       .  S
O43         Ni51   1.913       .  S
O43         Ni45   1.926       .  S
O43         Ni50   1.891       .  S
O44         Ni45   1.931       .  S
Ni45         O49   1.949       .  S
Ni45         O47   1.932       .  S
O46         Ni51   1.922       .  S
C48          O49   1.276       .  A
C48        C1167   1.482       .  S
O53         Ni59   1.910       .  S
O53          C74   1.265       .  A
O54         Ni77   1.912       .  S
O54          C63   1.270       .  A
O55         Ni59   1.895       .  S
O55         Ni77   1.909       .  S
O55         Ni71   1.915       .  S
O55          H78   0.966       .  S
C56          O73   1.279       .  A
C56          O65   1.280       .  A
C56        C1196   1.465       .  S
O57         Ni76   1.937       .  S
O57          C63   1.273       .  A
O58         Ni76   1.898       .  S
O58          C60   1.268       .  A
Ni59         O62   1.912       .  S
Ni59         O64   1.899       .  S
C60          O70   1.277       .  A
C60        C1135   1.480       .  S
O61         Ni77   1.914       .  S
O61          C67   1.275       .  A
O62          C67   1.276       .  A
C63        C1151   1.475       .  S
O64          C66   1.267       .  A
O65         Ni76   1.921       .  S
C66          O72   1.274       .  A
C66        C1116   1.477       .  S
C67        C1183   1.459   1_565  S
H68          O69   0.967       .  S
O69         Ni77   1.903       .  S
O69         Ni71   1.909       .  S
O69         Ni76   1.885       .  S
O70         Ni71   1.949       .  S
Ni71         O75   1.932       .  S
Ni71         O73   1.923       .  S
O72         Ni77   1.944       .  S
C74          O75   1.274       .  A
C74        C1100   1.476       .  S
O79         Ni85   1.894       .  S
O79         C100   1.260       .  A
O80        Ni103   1.905       .  S
O80          C89   1.266       .  A
O81         Ni85   1.896       .  S
O81        Ni103   1.899       .  S
O81         Ni97   1.918       .  S
O81         H104   0.966       .  S
C82          O99   1.277       .  A
C82          O91   1.279       .  A
C82        C1087   1.474       .  S
O83        Ni102   1.942       .  S
O83          C89   1.273       .  A
O84        Ni102   1.902       .  S
O84          C86   1.269       .  A
Ni85         O88   1.911       .  S
Ni85         O90   1.899       .  S
C86          O96   1.276       .  A
C86        C1292   1.475       .  S
O87        Ni103   1.924       .  S
O87          C93   1.280       .  A
O88          C93   1.277       .  A
C89        C1148   1.476       .  S
O90          C92   1.265       .  A
O91        Ni102   1.925       .  S
C92          O98   1.269       .  A
C92        C1311   1.473       .  S
C93        C1071   1.464   1_545  S
H94          O95   0.967       .  S
O95        Ni103   1.915       .  S
O95         Ni97   1.921       .  S
O95        Ni102   1.898       .  S
O96         Ni97   1.939       .  S
Ni97        O101   1.941       .  S
Ni97         O99   1.921       .  S
O98        Ni103   1.933       .  S
C100        O101   1.271       .  A
C100       C1052   1.474       .  S
O105       Ni111   1.897       .  S
O105        C126   1.260       .  A
O106       Ni129   1.897       .  S
O106        C115   1.266       .  A
O107       Ni111   1.883       .  S
O107       Ni129   1.891       .  S
O107       Ni123   1.922       .  S
O107        H130   0.961       .  S
C108        O125   1.280       .  A
C108        O117   1.283       .  A
C108       C1132   1.480       .  S
O109       Ni128   1.952       .  S
O109        C115   1.278       .  A
O110       Ni128   1.900       .  S
O110        C112   1.270       .  A
Ni111       O114   1.908       .  S
Ni111       O116   1.896       .  S
C112        O122   1.276       .  A
C112       C1215   1.480       .  S
O113       Ni129   1.941       .  S
O113        C119   1.282       .  A
O114        C119   1.277       .  A
C115       C1036   1.477       .  S
O116        C118   1.265       .  A
O117       Ni128   1.939       .  S
C118        O124   1.269       .  A
C118       C1231   1.471       .  S
C119       C1119   1.473       .  S
H120        O121   0.968       .  S
O121       Ni129   1.916       .  S
O121       Ni123   1.915       .  S
O121       Ni128   1.889       .  S
O122       Ni123   1.942       .  S
Ni123       O127   1.943       .  S
Ni123       O125   1.927       .  S
O124       Ni129   1.931       .  S
C126        O127   1.275       .  A
C126       C1020   1.475       .  S
O131       Ni137   1.896       .  S
O131        C152   1.260       .  A
O132       Ni155   1.904       .  S
O132        C141   1.265       .  A
O133       Ni137   1.891       .  S
O133       Ni155   1.899       .  S
O133       Ni149   1.920       .  S
O133        H156   0.965       .  S
C134        O151   1.279       .  A
C134        O143   1.280       .  A
C134       C1263   1.477       .  S
O135       Ni154   1.948       .  S
O135        C141   1.275       .  A
O136       Ni154   1.891       .  S
O136        C138   1.268       .  A
Ni137       O140   1.906       .  S
Ni137       O142   1.899       .  S
C138        O148   1.278       .  A
C138       C1084   1.472       .  S
O139       Ni155   1.935       .  S
O139        C145   1.281       .  A
O140        C145   1.276       .  A
C141       C1039   1.474       .  S
O142        C144   1.265       .  A
O143       Ni154   1.931       .  S
C144        O150   1.265       .  A
C144       C1068   1.465       .  S
C145       C1279   1.469       .  S
H146        O147   0.967       .  S
O147       Ni155   1.915       .  S
O147       Ni149   1.923       .  S
O147       Ni154   1.892       .  S
O148       Ni149   1.945       .  S
Ni149       O153   1.953       .  S
Ni149       O151   1.925       .  S
O150       Ni155   1.918       .  S
C152        O153   1.277       .  A
C152       C1004   1.482       .  S
O157       Ni163   1.899       .  S
O157        C178   1.260       .  A
O158       Ni181   1.911       .  S
O158        C167   1.269       .  A
O159       Ni163   1.885       .  S
O159       Ni181   1.901       .  S
O159       Ni175   1.923   1_455  S
O159        H182   0.966       .  S
C160        O177   1.280       .  A
C160        O169   1.282       .  A
C160        C943   1.483       .  S
O161       Ni180   1.956   1_455  S
O161        C167   1.278       .  A
O162       Ni180   1.899       .  S
O162        C164   1.270       .  A
Ni163       O166   1.907       .  S
Ni163       O168   1.892       .  S
C164        O174   1.273       .  A
C164        C975   1.473       .  S
O165       Ni181   1.938       .  S
O165        C171   1.281       .  A
O166        C171   1.276       .  A
C167        C988   1.487       .  S
O168        C170   1.264       .  A
O169       Ni180   1.938       .  S
C170        O176   1.270       .  A
C170        C956   1.462       .  S
C171        C924   1.473       .  S
H172        O173   0.967       .  S
O173       Ni181   1.915       .  S
O173       Ni175   1.923   1_455  S
O173       Ni180   1.889   1_455  S
O174       Ni175   1.934       .  S
Ni175       O179   1.948       .  S
Ni175       O177   1.929       .  S
O176       Ni181   1.928       .  S
C178        O179   1.274   1_455  A
C178        C908   1.479       .  S
O183       Ni189   1.903       .  S
O183        C204   1.262       .  A
O184       Ni207   1.910       .  S
O184        C193   1.269       .  A
O185       Ni189   1.887       .  S
O185       Ni207   1.902       .  S
O185       Ni201   1.920       .  S
O185        H208   0.966       .  S
C186        O203   1.280       .  A
C186        O195   1.283       .  A
C186        C844   1.475       .  S
O187       Ni206   1.955       .  S
O187        C193   1.278       .  A
O188       Ni206   1.906       .  S
O188        C190   1.270       .  A
Ni189       O192   1.911       .  S
Ni189       O194   1.897       .  S
C190        O200   1.275       .  A
C190        C876   1.477       .  S
O191       Ni207   1.929       .  S
O191        C197   1.278       .  A
O192        C197   1.276       .  A
C193        C991   1.486       .  S
O194        C196   1.266       .  A
O195       Ni206   1.939       .  S
C196        O202   1.273       .  A
C196        C895   1.471       .  S
C197        C863   1.468       .  S
H198        O199   0.967       .  S
O199       Ni207   1.910       .  S
O199       Ni201   1.918       .  S
O199       Ni206   1.890       .  S
O200       Ni201   1.940       .  S
Ni201       O205   1.950       .  S
Ni201       O203   1.922       .  S
O202       Ni207   1.939       .  S
C204        O205   1.276       .  A
C204       C1164   1.483       .  S
O209       Ni215   1.905       .  S
O209        C230   1.263       .  A
O210       Ni233   1.912       .  S
O210        C219   1.270       .  A
O211       Ni215   1.885       .  S
O211       Ni233   1.903       .  S
O211       Ni227   1.923       .  S
O211        H234   0.966       .  S
C212        O229   1.280       .  A
C212        O221   1.279       .  A
C212        C879   1.477       .  S
O213       Ni232   1.936       .  S
O213        C219   1.274       .  A
O214       Ni232   1.900       .  S
O214        C216   1.269       .  A
Ni215       O218   1.915       .  S
Ni215       O220   1.893       .  S
C216        O226   1.274       .  A
C216        C796   1.474       .  S
O217       Ni233   1.929       .  S
O217        C223   1.278       .  A
O218        C223   1.277       .  A
C219        C828   1.478       .  S
O220        C222   1.265       .  A
O221       Ni232   1.925       .  S
C222        O228   1.273       .  A
C222        C812   1.472       .  S
C223        C892   1.475       .  S
H224        O225   0.966       .  S
O225       Ni233   1.914       .  S
O225       Ni227   1.917       .  S
O225       Ni232   1.888       .  S
O226       Ni227   1.938       .  S
Ni227       O231   1.942       .  S
Ni227       O229   1.932       .  S
O228       Ni233   1.940       .  S
C230        O231   1.275       .  A
C230       C1023   1.479       .  S
O235       Ni241   1.905       .  S
O235        C256   1.263       .  A
O236       Ni259   1.900       .  S
O236        C245   1.265       .  A
O237       Ni241   1.894       .  S
O237       Ni259   1.901       .  S
O237       Ni253   1.920       .  S
O237        H260   0.967       .  S
C238        O255   1.280       .  A
C238        O247   1.281       .  A
C238        C783   1.474       .  S
O239       Ni258   1.951       .  S
O239        C245   1.276       .  A
O240       Ni258   1.905       .  S
O240        C242   1.270       .  A
Ni241       O244   1.915       .  S
Ni241       O246   1.902       .  S
C242        O252   1.277       .  A
C242        C940   1.485       .  S
O243       Ni259   1.925       .  S
O243        C249   1.278       .  A
O244        C249   1.277       .  A
C245        C831   1.473       .  S
O246        C248   1.266       .  A
O247       Ni258   1.930       .  S
C248        O254   1.268       .  A
C248        C927   1.472       .  S
C249        C767   1.469       .  S
H250        O251   0.966       .  S
O251       Ni259   1.904       .  S
O251       Ni253   1.915       .  S
O251       Ni258   1.890       .  S
O252       Ni253   1.948       .  S
Ni253       O257   1.939       .  S
Ni253       O255   1.927       .  S
O254       Ni259   1.928       .  S
C256        O257   1.275       .  A
C256        C748   1.477       .  S
O261       Ni267   1.902   1_545  S
O261        C282   1.261       .  A
O262       Ni285   1.893       .  S
O262        C271   1.263   1_565  A
O263       Ni267   1.891   1_545  S
O263       Ni285   1.897   1_545  S
O263       Ni279   1.919       .  S
O263        H286   0.966       .  S
C264        O281   1.279       .  A
C264        O273   1.283       .  A
C264        C972   1.469       .  S
O265       Ni284   1.955       .  S
O265        C271   1.278       .  A
O266       Ni284   1.906       .  S
O266        C268   1.269       .  A
Ni267       O270   1.915       .  S
Ni267       O272   1.898       .  S
C268        O278   1.274       .  A
C268        C780   1.476       .  S
O269       Ni285   1.918       .  S
O269        C275   1.275       .  A
O270        C275   1.277       .  A
C271        C735   1.473   1_545  S
O272        C274   1.265       .  A
O273       Ni284   1.933       .  S
C274        O280   1.267       .  A
C274        C764   1.465       .  S
C275        C959   1.466       .  S
H276        O277   0.966       .  S
O277       Ni285   1.896   1_545  S
O277       Ni279   1.911       .  S
O277       Ni284   1.888       .  S
O278       Ni279   1.935       .  S
Ni279       O283   1.940       .  S
Ni279       O281   1.917       .  S
O280       Ni285   1.923       .  S
C282        O283   1.274       .  A
C282        C716   1.475       .  S
O287       Ni293   1.916       .  S
O287        C308   1.266       .  A
O288       Ni311   1.910       .  S
O288        C297   1.267       .  A
O289       Ni293   1.902       .  S
O289       Ni311   1.918       .  S
O289       Ni305   1.917       .  S
O289        H312   0.957       .  S
C290        O307   1.277       .  A
C290        O299   1.278       .  A
C290        C799   1.473       .  S
O291       Ni310   1.936       .  S
O291        C297   1.272       .  A
O292       Ni310   1.900       .  S
O292        C294   1.268       .  A
Ni293       O296   1.921       .  S
Ni293       O298   1.897       .  S
C294        O304   1.277       .  A
C294        C847   1.473   1_565  S
O295       Ni311   1.921       .  S
O295        C301   1.275       .  A
O296        C301   1.277       .  A
C297        C732   1.477       .  S
O298        C300   1.266       .  A
O299       Ni310   1.922       .  S
C300        O306   1.269       .  A
C300        C860   1.469       .  S
C301        C815   1.473       .  S
H302        O303   0.969       .  S
O303       Ni311   1.910       .  S
O303       Ni305   1.917       .  S
O303       Ni310   1.893       .  S
O304       Ni305   1.943       .  S
Ni305       O309   1.935       .  S
Ni305       O307   1.926       .  S
O306       Ni311   1.931       .  S
C308        O309   1.273       .  A
C308       C1103   1.481       .  S
O313       Ni319   1.905       .  S
O313        C334   1.263       .  A
O314       Ni337   1.901       .  S
O314        C323   1.264       .  A
O315       Ni319   1.901       .  S
O315       Ni337   1.905       .  S
O315       Ni331   1.924       .  S
O315        H338   0.966       .  S
C316        O333   1.283       .  A
C316        O325   1.279       .  A
C316        C636   1.479   1_655  S
O317       Ni336   1.945       .  S
O317        C323   1.273       .  A
O318       Ni336   1.895       .  S
O318        C320   1.268       .  A
Ni319       O322   1.922       .  S
Ni319       O324   1.903       .  S
C320        O330   1.275       .  A
C320        C671   1.475       .  S
O321       Ni337   1.922       .  S
O321        C327   1.277       .  A
O322        C327   1.278       .  A
C323        C703   1.471       .  S
O324        C326   1.266       .  A
O325       Ni336   1.921       .  S
C326        O332   1.266       .  A
C326        C684   1.469       .  S
C327        C655   1.470       .  S
H328        O329   0.967       .  S
O329       Ni337   1.908       .  S
O329       Ni331   1.918       .  S
O329       Ni336   1.891       .  S
O330       Ni331   1.940       .  S
Ni331       O335   1.945       .  S
Ni331       O333   1.939       .  S
O332       Ni337   1.921       .  S
C334        O335   1.275       .  A
C334       C1007   1.483       .  S
O339       Ni345   1.904       .  S
O339        C360   1.263       .  A
O340       Ni363   1.902       .  S
O340        C349   1.267       .  A
O341       Ni345   1.891       .  S
O341       Ni363   1.900       .  S
O341       Ni357   1.924       .  S
O341        H364   0.966       .  S
C342        O359   1.281       .  A
C342        O351   1.280       .  A
C342        C588   1.480       .  S
O343       Ni362   1.941       .  S
O343        C349   1.274       .  A
O344       Ni362   1.899       .  S
O344        C346   1.268       .  A
Ni345       O348   1.914       .  S
Ni345       O350   1.897       .  S
C346        O356   1.275       .  A
C346        C620   1.470       .  S
O347       Ni363   1.929       .  S
O347        C353   1.278       .  A
O348        C353   1.276       .  A
C349        C700   1.474       .  S
O350        C352   1.265       .  A
O351       Ni362   1.927       .  S
C352        O358   1.270       .  A
C352        C607   1.467       .  S
C353        C575   1.469       .  S
H354        O355   0.966       .  S
O355       Ni363   1.913       .  S
O355       Ni357   1.918       .  S
O355       Ni362   1.892       .  S
O356       Ni357   1.936       .  S
Ni357       O361   1.940       .  S
Ni357       O359   1.935       .  S
O358       Ni363   1.931       .  S
C360        O361   1.274       .  A
C360        C751   1.477       .  S
O365       Ni371   1.896       .  S
O365        C386   1.259       .  A
O366       Ni389   1.902       .  S
O366        C375   1.267       .  A
O367       Ni371   1.889       .  S
O367       Ni389   1.897       .  S
O367       Ni383   1.924       .  S
O367        H390   0.967       .  S
C368        O385   1.279       .  A
C368        O377   1.282       .  A
C368        C524   1.479       .  S
O369       Ni388   1.943       .  S
O369        C375   1.276       .  A
O370       Ni388   1.907       .  S
O370        C372   1.270       .  A
Ni371       O374   1.911       .  S
Ni371       O376   1.894       .  S
C372        O382   1.274       .  A
C372        C639   1.480       .  S
O373       Ni389   1.941       .  S
O373        C379   1.283       .  A
O374        C379   1.277       .  A
C375        C556   1.471       .  S
O376        C378   1.264       .  A
O377       Ni388   1.935       .  S
C378        O384   1.269       .  A
C378        C652   1.471       .  S
C379        C543   1.477       .  S
H380        O381   0.967       .  S
O381       Ni389   1.916       .  S
O381       Ni383   1.912       .  S
O381       Ni388   1.891       .  S
O382       Ni383   1.938       .  S
Ni383       O387   1.940       .  S
Ni383       O385   1.925       .  S
O384       Ni389   1.932       .  S
C386        O387   1.272       .  A
C386       C1055   1.474       .  S
O391       Ni397   1.905       .  S
O391        C412   1.265       .  A
O392       Ni415   1.899       .  S
O392        C401   1.266       .  A
O393       Ni397   1.882       .  S
O393       Ni415   1.895       .  S
O393       Ni409   1.923   1_545  S
O393        H416   0.966       .  S
C394        O411   1.283       .  A
C394        O403   1.279       .  A
C394        C623   1.472       .  S
O395       Ni414   1.940       .  S
O395        C401   1.275   1_565  A
O396       Ni414   1.900       .  S
O396        C398   1.269       .  A
Ni397       O400   1.916       .  S
Ni397       O402   1.899       .  S
C398        O408   1.275       .  A
C398        C495   1.475       .  S
O399       Ni415   1.925       .  S
O399        C405   1.275       .  A
O400        C405   1.277       .  A
C401        C559   1.471       .  S
O402        C404   1.266       .  A
O403       Ni414   1.920       .  S
C404        O410   1.271       .  A
C404        C508   1.467       .  S
C405        C604   1.472       .  S
H406        O407   0.967       .  S
O407       Ni415   1.900       .  S
O407       Ni409   1.912   1_545  S
O407       Ni414   1.884   1_545  S
O408       Ni409   1.940       .  S
Ni409       O413   1.942       .  S
Ni409       O411   1.931       .  S
O410       Ni415   1.930       .  S
C412        O413   1.278   1_545  A
C412        C719   1.478       .  S
O417       Ni423   1.901       .  S
O417        C438   1.261   1_655  A
O418       Ni441   1.904       .  S
O418        C427   1.266   1_655  A
O419       Ni423   1.896   1_455  S
O419       Ni441   1.900   1_455  S
O419       Ni435   1.921       .  S
O419        H442   0.965       .  S
C420        O437   1.279       .  A
C420        O429   1.280       .  A
C420        C492   1.473       .  S
O421       Ni440   1.943       .  S
O421        C427   1.275       .  A
O422       Ni440   1.902       .  S
O422        C424   1.269       .  A
Ni423       O426   1.919       .  S
Ni423       O428   1.893       .  S
C424        O434   1.278       .  A
C424        C591   1.482       .  S
O425       Ni441   1.919       .  S
O425        C431   1.277       .  A
O426        C431   1.279       .  A
C427        C479   1.476   1_455  S
O428        C430   1.264       .  A
O429       Ni440   1.928       .  S
C430        O436   1.269       .  A
C430        C572   1.470       .  S
C431        C511   1.470       .  S
H432        O433   0.967       .  S
O433       Ni441   1.911   1_455  S
O433       Ni435   1.914       .  S
O433       Ni440   1.890       .  S
O434       Ni435   1.947       .  S
Ni435       O439   1.940       .  S
Ni435       O437   1.924       .  S
O436       Ni441   1.934       .  S
C438        O439   1.274       .  A
C438        C911   1.475       .  S
O443       Ni449   1.896       .  S
O443        C464   1.261       .  A
O444       Ni467   1.904       .  S
O444        C453   1.265       .  A
O445       Ni449   1.892       .  S
O445       Ni467   1.901       .  S
O445       Ni461   1.919       .  S
O445        H468   0.966       .  S
C446        O463   1.279       .  A
C446        O455   1.280       .  A
C446        C668   1.473       .  S
O447       Ni466   1.945       .  S
O447        C453   1.275       .  A
O448       Ni466   1.898       .  S
O448        C450   1.269       .  A
Ni449       O452   1.907       .  S
Ni449       O454   1.903       .  S
C450        O460   1.279       .  A
C450        C527   1.480   1_655  S
O451       Ni467   1.935       .  S
O451        C457   1.280       .  A
O452        C457   1.276       .  A
C453        C476   1.474       .  S
O454        C456   1.266       .  A
O455       Ni466   1.925       .  S
C456        O462   1.268       .  A
C456        C540   1.475       .  S
C457        C687   1.469       .  S
H458        O459   0.966       .  S
O459       Ni467   1.911       .  S
O459       Ni461   1.921       .  S
O459       Ni466   1.891       .  S
O460       Ni461   1.950       .  S
Ni461       O465   1.949       .  S
Ni461       O463   1.924       .  S
O462       Ni467   1.929       .  S
C464        O465   1.276       .  A
C464       C1247   1.479       .  S
C469        S475   1.710       .  A
C469        C474   1.387       .  A
C469        C470   1.405       .  A
C470        C471   1.405       .  A
C470        H481   1.083       .  S
C471        C480   1.375       .  A
C471        C472   1.387       .  A
C472        S478   1.706   1_655  A
C472        C473   1.402       .  A
C473        C474   1.402       .  A
C473        H482   1.083   1_655  S
C474        C477   1.372       .  A
S475        C476   1.725       .  A
C476        C477   1.386       .  A
C477        H483   1.083       .  S
S478        C479   1.723   1_455  A
C479        C480   1.389       .  A
C480        H484   1.083       .  S
C485        S491   1.703       .  A
C485        C490   1.387       .  A
C485        C486   1.397       .  A
C486        C487   1.399       .  A
C486        H497   1.083       .  S
C487        C496   1.365       .  A
C487        C488   1.386       .  A
C488        S494   1.715       .  A
C488        C489   1.406       .  A
C489        C490   1.407       .  A
C489        H498   1.083       .  S
C490        C493   1.374       .  A
S491        C492   1.722       .  A
C492        C493   1.390       .  A
C493        H499   1.083       .  S
S494        C495   1.726       .  A
C495        C496   1.386       .  A
C496        H500   1.083       .  S
C501        S507   1.697       .  A
C501        C506   1.388       .  A
C501        C502   1.396       .  A
C502        C503   1.397       .  A
C502        H513   1.083       .  S
C503        C512   1.365       .  A
C503        C504   1.387       .  A
C504        S510   1.709       .  A
C504        C505   1.405       .  A
C505        C506   1.405       .  A
C505        H514   1.083       .  S
C506        C509   1.375       .  A
S507        C508   1.721       .  A
C508        C509   1.387       .  A
C509        H515   1.083       .  S
S510        C511   1.725       .  A
C511        C512   1.384       .  A
C512        H516   1.083       .  S
C517        S523   1.713       .  A
C517        C522   1.386       .  A
C517        C518   1.408       .  A
C518        C519   1.407       .  A
C518        H529   1.083       .  S
C519        C528   1.381       .  A
C519        C520   1.387       .  A
C520        S526   1.700       .  A
C520        C521   1.401       .  A
C521        C522   1.400       .  A
C521        H530   1.083       .  S
C522        C525   1.371       .  A
S523        C524   1.726       .  A
C524        C525   1.388       .  A
C525        H531   1.083       .  S
S526        C527   1.726       .  A
C527        C528   1.390       .  A
C528        H532   1.083       .  S
C533        S539   1.715       .  A
C533        C538   1.386       .  A
C533        C534   1.408       .  A
C534        C535   1.408       .  A
C534        H545   1.083       .  S
C535        C544   1.378       .  A
C535        C536   1.387       .  A
C536        S542   1.699       .  A
C536        C537   1.397       .  A
C537        C538   1.398       .  A
C537        H546   1.083       .  S
C538        C541   1.366       .  A
S539        C540   1.726       .  A
C540        C541   1.385       .  A
C541        H547   1.083       .  S
S542        C543   1.723       .  A
C543        C544   1.391       .  A
C544        H548   1.083       .  S
C549        S555   1.704       .  A
C549        C554   1.387       .  A
C549        C550   1.399       .  A
C550        C551   1.400       .  A
C550        H561   1.083       .  S
C551        C560   1.367       .  A
C551        C552   1.387       .  A
C552        S558   1.712       .  A
C552        C553   1.404       .  A
C553        C554   1.405       .  A
C553        H562   1.083       .  S
C554        C557   1.373       .  A
S555        C556   1.721       .  A
C556        C557   1.388       .  A
C557        H563   1.083       .  S
S558        C559   1.724       .  A
C559        C560   1.385       .  A
C560        H564   1.083   1_545  S
C565        S571   1.714       .  A
C565        C570   1.387       .  A
C565        C566   1.405       .  A
C566        C567   1.407       .  A
C566        H577   1.083       .  S
C567        C576   1.373       .  A
C567        C568   1.388       .  A
C568        S574   1.701       .  A
C568        C569   1.396       .  A
C569        C570   1.398       .  A
C569        H578   1.083       .  S
C570        C573   1.364       .  A
S571        C572   1.724       .  A
C572        C573   1.384       .  A
C573        H579   1.084       .  S
S574        C575   1.721       .  A
C575        C576   1.388       .  A
C576        H580   1.083       .  S
C581        S587   1.702       .  A
C581        C586   1.387       .  A
C581        C582   1.398       .  A
C582        C583   1.400       .  A
C582        H593   1.083       .  S
C583        C592   1.368       .  A
C583        C584   1.385       .  A
C584        S590   1.720       .  A
C584        C585   1.411       .  A
C585        C586   1.411       .  A
C585        H594   1.083       .  S
C586        C589   1.382       .  A
S587        C588   1.723       .  A
C588        C589   1.393       .  A
C589        H595   1.083       .  S
S590        C591   1.728       .  A
C591        C592   1.388       .  A
C592        H596   1.083       .  S
C597        S603   1.711       .  A
C597        C602   1.387       .  A
C597        C598   1.408       .  A
C598        C599   1.407       .  A
C598        H609   1.083       .  S
C599        C608   1.378       .  A
C599        C600   1.388       .  A
C600        S606   1.695       .  A
C600        C601   1.394       .  A
C601        C602   1.395       .  A
C601        H610   1.083       .  S
C602        C605   1.365       .  A
S603        C604   1.728       .  A
C604        C605   1.383       .  A
C605        H611   1.083       .  S
S606        C607   1.718       .  A
C607        C608   1.389       .  A
C608        H612   1.083       .  S
C613        S619   1.701       .  A
C613        C618   1.387       .  A
C613        C614   1.397       .  A
C614        C615   1.399       .  A
C614        H625   1.083       .  S
C615        C624   1.365       .  A
C615        C616   1.386       .  A
C616        S622   1.716       .  A
C616        C617   1.407       .  A
C617        C618   1.408       .  A
C617        H626   1.083       .  S
C618        C621   1.376       .  A
S619        C620   1.722       .  A
C620        C621   1.389       .  A
C621        H627   1.083       .  S
S622        C623   1.725       .  A
C623        C624   1.385       .  A
C624        H628   1.084       .  S
C629        S635   1.701       .  A
C629        C634   1.387       .  A
C629        C630   1.399       .  A
C630        C631   1.399       .  A
C630        H641   1.083       .  S
C631        C640   1.369       .  A
C631        C632   1.386       .  A
C632        S638   1.716       .  A
C632        C633   1.409       .  A
C633        C634   1.409       .  A
C633        H642   1.083       .  S
C634        C637   1.380       .  A
S635        C636   1.724       .  A
C636        C637   1.391       .  A
C637        H643   1.083       .  S
S638        C639   1.727   1_565  A
C639        C640   1.387   1_545  A
C640        H644   1.083       .  S
C645        S651   1.716       .  A
C645        C650   1.386       .  A
C645        C646   1.406       .  A
C646        C647   1.407       .  A
C646        H657   1.083       .  S
C647        C656   1.375       .  A
C647        C648   1.388       .  A
C648        S654   1.701       .  A
C648        C649   1.396       .  A
C649        C650   1.397       .  A
C649        H658   1.083       .  S
C650        C653   1.363       .  A
S651        C652   1.724       .  A
C652        C653   1.384       .  A
C653        H659   1.084       .  S
S654        C655   1.720       .  A
C655        C656   1.389       .  A
C656        H660   1.083       .  S
C661        S667   1.698       .  A
C661        C666   1.387       .  A
C661        C662   1.394       .  A
C662        C663   1.396       .  A
C662        H673   1.083       .  S
C663        C672   1.362       .  A
C663        C664   1.386       .  A
C664        S670   1.718       .  A
C664        C665   1.409       .  A
C665        C666   1.410       .  A
C665        H674   1.083       .  S
C666        C669   1.378       .  A
S667        C668   1.720   1_565  A
C668        C669   1.391   1_545  A
C669        H675   1.083   1_565  S
S670        C671   1.727       .  A
C671        C672   1.384       .  A
C672        H676   1.084       .  S
C677        S683   1.711       .  A
C677        C682   1.387       .  A
C677        C678   1.405       .  A
C678        C679   1.406       .  A
C678        H689   1.083       .  S
C679        C688   1.375       .  A
C679        C680   1.388       .  A
C680        S686   1.697       .  A
C680        C681   1.396       .  A
C681        C682   1.396       .  A
C681        H690   1.083       .  S
C682        C685   1.365       .  A
S683        C684   1.724       .  A
C684        C685   1.383       .  A
C685        H691   1.083       .  S
S686        C687   1.721       .  A
C687        C688   1.388       .  A
C688        H692   1.083       .  S
C693        S699   1.708       .  A
C693        C698   1.387       .  A
C693        C694   1.404       .  A
C694        C695   1.404       .  A
C694        H705   1.083       .  S
C695        C704   1.373       .  A
C695        C696   1.387       .  A
C696        S702   1.706       .  A
C696        C697   1.401       .  A
C697        C698   1.402       .  A
C697        H706   1.083       .  S
C698        C701   1.372       .  A
S699        C700   1.725       .  A
C700        C701   1.386       .  A
C701        H707   1.083       .  S
S702        C703   1.722       .  A
C703        C704   1.387       .  A
C704        H708   1.083       .  S
C709        S715   1.718       .  A
C709        C714   1.386       .  A
C709        C710   1.400   1_554  A
C710        C711   1.406       .  A
C710        H721   1.083       .  S
C711        C720   1.363       .  A
C711        C712   1.385       .  A
C712        S718   1.719   1_545  A
C712        C713   1.400   1_546  A
C713        C714   1.406   1_565  A
C713        H722   1.083       .  S
C714        C717   1.363       .  A
S715        C716   1.721       .  A
C716        C717   1.390       .  A
C717        H723   1.083   1_545  S
S718        C719   1.721   1_565  A
C719        C720   1.392       .  A
C720        H724   1.083       .  S
C725        S731   1.706       .  A
C725        C730   1.387       .  A
C725        C726   1.402       .  A
C726        C727   1.402       .  A
C726        H737   1.083   1_565  S
C727        C736   1.372   1_565  A
C727        C728   1.387       .  A
C728        S734   1.709       .  A
C728        C729   1.404       .  A
C729        C730   1.405       .  A
C729        H738   1.083       .  S
C730        C733   1.375       .  A
S731        C732   1.724       .  A
C732        C733   1.389       .  A
C733        H739   1.083       .  S
S734        C735   1.725       .  A
C735        C736   1.386   1_565  A
C736        H740   1.083       .  S
C741        S747   1.718       .  A
C741        C746   1.386       .  A
C741        C742   1.401   1_554  A
C742        C743   1.406       .  A
C742        H753   1.083       .  S
C743        C752   1.365       .  A
C743        C744   1.385       .  A
C744        S750   1.718       .  A
C744        C745   1.401   1_556  A
C745        C746   1.406       .  A
C745        H754   1.083       .  S
C746        C749   1.365       .  A
S747        C748   1.722       .  A
C748        C749   1.391       .  A
C749        H755   1.083       .  S
S750        C751   1.722       .  A
C751        C752   1.391       .  A
C752        H756   1.083       .  S
C757        S763   1.712       .  A
C757        C762   1.387       .  A
C757        C758   1.403       .  A
C758        C759   1.405       .  A
C758        H769   1.083       .  S
C759        C768   1.372       .  A
C759        C760   1.388       .  A
C760        S766   1.700       .  A
C760        C761   1.396       .  A
C761        C762   1.397       .  A
C761        H770   1.083       .  S
C762        C765   1.363       .  A
S763        C764   1.721       .  A
C764        C765   1.383       .  A
C765        H771   1.084       .  S
S766        C767   1.721       .  A
C767        C768   1.388       .  A
C768        H772   1.083       .  S
C773        S779   1.712       .  A
C773        C778   1.386       .  A
C773        C774   1.406       .  A
C774        C775   1.406       .  A
C774        H785   1.083       .  S
C775        C784   1.377       .  A
C775        C776   1.387       .  A
C776        S782   1.703       .  A
C776        C777   1.400       .  A
C777        C778   1.401       .  A
C777        H786   1.083       .  S
C778        C781   1.370       .  A
S779        C780   1.725       .  A
C780        C781   1.387       .  A
C781        H787   1.083       .  S
S782        C783   1.723       .  A
C783        C784   1.388       .  A
C784        H788   1.083       .  S
C789        S795   1.716       .  A
C789        C794   1.386       .  A
C789        C790   1.408       .  A
C790        C791   1.409       .  A
C790        H801   1.083       .  S
C791        C800   1.377   1_655  A
C791        C792   1.387       .  A
C792        S798   1.699       .  A
C792        C793   1.395       .  A
C793        C794   1.397       .  A
C793        H802   1.083       .  S
C794        C797   1.364       .  A
S795        C796   1.726       .  A
C796        C797   1.385       .  A
C797        H803   1.084       .  S
S798        C799   1.720   1_655  A
C799        C800   1.391       .  A
C800        H804   1.083       .  S
C805        S811   1.694       .  A
C805        C810   1.388       .  A
C805        C806   1.394       .  A
C806        C807   1.394       .  A
C806        H817   1.083       .  S
C807        C816   1.363       .  A
C807        C808   1.386       .  A
C808        S814   1.717       .  A
C808        C809   1.410       .  A
C809        C810   1.410       .  A
C809        H818   1.083       .  S
C810        C813   1.381       .  A
S811        C812   1.720       .  A
C812        C813   1.391       .  A
C813        H819   1.083       .  S
S814        C815   1.728       .  A
C815        C816   1.383       .  A
C816        H820   1.084       .  S
C821        S827   1.705       .  A
C821        C826   1.387       .  A
C821        C822   1.403       .  A
C822        C823   1.402       .  A
C822        H833   1.083       .  S
C823        C832   1.374       .  A
C823        C824   1.387       .  A
C824        S830   1.709       .  A
C824        C825   1.405       .  A
C825        C826   1.405       .  A
C825        H834   1.083       .  S
C826        C829   1.377       .  A
S827        C828   1.725       .  A
C828        C829   1.389       .  A
C829        H835   1.083       .  S
S830        C831   1.724       .  A
C831        C832   1.386       .  A
C832        H836   1.083       .  S
C837        S843   1.711       .  A
C837        C842   1.387       .  A
C837        C838   1.406       .  A
C838        C839   1.406       .  A
C838        H849   1.083       .  S
C839        C848   1.378       .  A
C839        C840   1.387       .  A
C840        S846   1.703       .  A
C840        C841   1.401       .  A
C841        C842   1.401       .  A
C841        H850   1.083       .  S
C842        C845   1.372       .  A
S843        C844   1.724       .  A
C844        C845   1.387       .  A
C845        H851   1.083       .  S
S846        C847   1.724       .  A
C847        C848   1.388       .  A
C848        H852   1.083       .  S
C853        S859   1.713       .  A
C853        C858   1.387       .  A
C853        C854   1.405       .  A
C854        C855   1.407       .  A
C854        H865   1.083       .  S
C855        C864   1.374       .  A
C855        C856   1.388       .  A
C856        S862   1.698       .  A
C856        C857   1.394       .  A
C857        C858   1.396       .  A
C857        H866   1.083       .  S
C858        C861   1.363       .  A
S859        C860   1.724       .  A
C860        C861   1.383       .  A
C861        H867   1.084       .  S
S862        C863   1.719       .  A
C863        C864   1.389       .  A
C864        H868   1.083       .  S
C869        S875   1.703       .  A
C869        C874   1.387       .  A
C869        C870   1.399       .  A
C870        C871   1.399       .  A
C870        H881   1.083       .  S
C871        C880   1.368       .  A
C871        C872   1.386       .  A
C872        S878   1.717       .  A
C872        C873   1.409       .  A
C873        C874   1.410       .  A
C873        H882   1.083       .  S
C874        C877   1.379   1_655  A
S875        C876   1.722   1_655  A
C876        C877   1.392       .  A
C877        H883   1.083       .  S
S878        C879   1.727   1_545  A
C879        C880   1.386   1_565  A
C880        H884   1.083       .  S
C885        S891   1.712       .  A
C885        C890   1.386       .  A
C885        C886   1.408       .  A
C886        C887   1.407       .  A
C886        H897   1.083       .  S
C887        C896   1.379       .  A
C887        C888   1.388       .  A
C888        S894   1.697       .  A
C888        C889   1.396       .  A
C889        C890   1.397       .  A
C889        H898   1.083       .  S
C890        C893   1.366       .  A
S891        C892   1.727       .  A
C892        C893   1.385       .  A
C893        H899   1.083       .  S
S894        C895   1.721       .  A
C895        C896   1.389       .  A
C896        H900   1.083       .  S
C901        S907   1.721       .  A
C901        C906   1.385   1_655  A
C901        C902   1.403   1_554  A
C902        C903   1.408   1_655  A
C902        H913   1.083       .  S
C903        C912   1.365   1_455  A
C903        C904   1.386       .  A
C904        S910   1.718       .  A
C904        C905   1.400   1_556  A
C905        C906   1.405       .  A
C905        H914   1.083       .  S
C906        C909   1.363       .  A
S907        C908   1.723   1_655  A
C908        C909   1.391       .  A
C909        H915   1.083       .  S
S910        C911   1.720       .  A
C911        C912   1.392   1_455  A
C912        H916   1.083       .  S
C917        S923   1.697       .  A
C917        C922   1.387       .  A
C917        C918   1.395       .  A
C918        C919   1.396       .  A
C918        H929   1.083       .  S
C919        C928   1.363       .  A
C919        C920   1.386       .  A
C920        S926   1.717       .  A
C920        C921   1.408       .  A
C921        C922   1.409       .  A
C921        H930   1.083       .  S
C922        C925   1.377       .  A
S923        C924   1.722       .  A
C924        C925   1.392       .  A
C925        H931   1.083       .  S
S926        C927   1.727       .  A
C927        C928   1.383       .  A
C928        H932   1.084       .  S
C933        S939   1.722       .  A
C933        C938   1.385       .  A
C933        C934   1.412       .  A
C934        C935   1.413       .  A
C934        H945   1.083       .  S
C935        C944   1.383       .  A
C935        C936   1.387       .  A
C936        S942   1.703       .  A
C936        C937   1.398       .  A
C937        C938   1.399       .  A
C937        H946   1.083       .  S
C938        C941   1.368       .  A
S939        C940   1.730       .  A
C940        C941   1.387       .  A
C941        H947   1.083       .  S
S942        C943   1.722       .  A
C943        C944   1.395       .  A
C944        H948   1.083       .  S
C949        S955   1.694       .  A
C949        C954   1.388       .  A
C949        C950   1.393       .  A
C950        C951   1.394       .  A
C950        H961   1.083       .  S
C951        C960   1.363       .  A
C951        C952   1.387       .  A
C952        S958   1.708       .  A
C952        C953   1.405       .  A
C953        C954   1.405       .  A
C953        H962   1.083       .  S
C954        C957   1.374       .  A
S955        C956   1.719       .  A
C956        C957   1.386       .  A
C957        H963   1.083       .  S
S958        C959   1.726       .  A
C959        C960   1.381       .  A
C960        H964   1.083       .  S
C965        S971   1.698       .  A
C965        C970   1.388       .  A
C965        C966   1.394       .  A
C966        C967   1.395       .  A
C966        H977   1.083       .  S
C967        C976   1.362       .  A
C967        C968   1.386       .  A
C968        S974   1.716       .  A
C968        C969   1.408       .  A
C969        C970   1.409       .  A
C969        H978   1.083       .  S
C970        C973   1.376       .  A
S971        C972   1.718       .  A
C972        C973   1.390       .  A
C973        H979   1.083       .  S
S974        C975   1.727       .  A
C975        C976   1.384       .  A
C976        H980   1.084       .  S
C981        S987   1.716       .  A
C981        C986   1.386       .  A
C981        C982   1.409       .  A
C982        C983   1.409       .  A
C982        H993   1.083       .  S
C983        C992   1.381       .  A
C983        C984   1.386       .  A
C984        S990   1.711       .  A
C984        C985   1.406       .  A
C985        C986   1.406       .  A
C985        H994   1.083       .  S
C986        C989   1.377       .  A
S987        C988   1.728       .  A
C988        C989   1.391       .  A
C989        H995   1.083       .  S
S990        C991   1.726       .  A
C991        C992   1.392       .  A
C992        H996   1.083       .  S
C997       S1003   1.723       .  A
C997       C1002   1.385       .  A
C997        C998   1.404       .  A
C998        C999   1.409       .  A
C998       H1009   1.083       .  S
C999       C1008   1.369       .  A
C999       C1000   1.385       .  A
C1000      S1006   1.720       .  A
C1000      C1001   1.403       .  A
C1001      C1002   1.408       .  A
C1001      H1010   1.083       .  S
C1002      C1005   1.367       .  A
S1003      C1004   1.723       .  A
C1004      C1005   1.393       .  A
C1005      H1011   1.083       .  S
S1006      C1007   1.724       .  A
C1007      C1008   1.393       .  A
C1008      H1012   1.083       .  S
C1013      S1019   1.717       .  A
C1013      C1018   1.386       .  A
C1013      C1014   1.399       .  A
C1014      C1015   1.404       .  A
C1014      H1025   1.083       .  S
C1015      C1024   1.362       .  A
C1015      C1016   1.385       .  A
C1016      S1022   1.722       .  A
C1016      C1017   1.403       .  A
C1017      C1018   1.408       .  A
C1017      H1026   1.083       .  S
C1018      C1021   1.365       .  A
S1019      C1020   1.719       .  A
C1020      C1021   1.393       .  A
C1021      H1027   1.083       .  S
S1022      C1023   1.724       .  A
C1023      C1024   1.390       .  A
C1024      H1028   1.083       .  S
C1029      S1035   1.709       .  A
C1029      C1034   1.387       .  A
C1029      C1030   1.403       .  A
C1030      C1031   1.404       .  A
C1030      H1041   1.083       .  S
C1031      C1040   1.373       .  A
C1031      C1032   1.387       .  A
C1032      S1038   1.710       .  A
C1032      C1033   1.404       .  A
C1033      C1034   1.404       .  A
C1033      H1042   1.083       .  S
C1034      C1037   1.374       .  A
S1035      C1036   1.724       .  A
C1036      C1037   1.389       .  A
C1037      H1043   1.083       .  S
S1038      C1039   1.724       .  A
C1039      C1040   1.387       .  A
C1040      H1044   1.083       .  S
C1045      S1051   1.718       .  A
C1045      C1050   1.386       .  A
C1045      C1046   1.400       .  A
C1046      C1047   1.405       .  A
C1046      H1057   1.083       .  S
C1047      C1056   1.362       .  A
C1047      C1048   1.386       .  A
C1048      S1054   1.718       .  A
C1048      C1049   1.400       .  A
C1049      C1050   1.406       .  A
C1049      H1058   1.083       .  S
C1050      C1053   1.363       .  A
S1051      C1052   1.721       .  A
C1052      C1053   1.390       .  A
C1053      H1059   1.083       .  S
S1054      C1055   1.721       .  A
C1055      C1056   1.390       .  A
C1056      H1060   1.083       .  S
C1061      S1067   1.712   1_455  A
C1061      C1066   1.387       .  A
C1061      C1062   1.404       .  A
C1062      C1063   1.405       .  A
C1062      H1073   1.083       .  S
C1063      C1072   1.373       .  A
C1063      C1064   1.388       .  A
C1064      S1070   1.696       .  A
C1064      C1065   1.393       .  A
C1065      C1066   1.395       .  A
C1065      H1074   1.083       .  S
C1066      C1069   1.361   1_455  A
S1067      C1068   1.724       .  A
C1068      C1069   1.381       .  A
C1069      H1075   1.084       .  S
S1070      C1071   1.720       .  A
C1071      C1072   1.387       .  A
C1072      H1076   1.083       .  S
C1077      S1083   1.696       .  A
C1077      C1082   1.387       .  A
C1077      C1078   1.397       .  A
C1078      C1079   1.397       .  A
C1078      H1089   1.083       .  S
C1079      C1088   1.366       .  A
C1079      C1080   1.386       .  A
C1080      S1086   1.712       .  A
C1080      C1081   1.407       .  A
C1081      C1082   1.407       .  A
C1081      H1090   1.083       .  S
C1082      C1085   1.378       .  A
S1083      C1084   1.724       .  A
C1084      C1085   1.389       .  A
C1085      H1091   1.083       .  S
S1086      C1087   1.726       .  A
C1087      C1088   1.385       .  A
C1088      H1092   1.083       .  S
C1093      S1099   1.715       .  A
C1093      C1098   1.386       .  A
C1093      C1094   1.400       .  A
C1094      C1095   1.404       .  A
C1094      H1105   1.083       .  S
C1095      C1104   1.365       .  A
C1095      C1096   1.385       .  A
C1096      S1102   1.721       .  A
C1096      C1097   1.405       .  A
C1097      C1098   1.409       .  A
C1097      H1106   1.083       .  S
C1098      C1101   1.370       .  A
S1099      C1100   1.720       .  A
C1100      C1101   1.392       .  A
C1101      H1107   1.083       .  S
S1102      C1103   1.725       .  A
C1103      C1104   1.390       .  A
C1104      H1108   1.083       .  S
C1109      S1115   1.718   1_655  A
C1109      C1114   1.386       .  A
C1109      C1110   1.408       .  A
C1110      C1111   1.409       .  A
C1110      H1121   1.083       .  S
C1111      C1120   1.377       .  A
C1111      C1112   1.387       .  A
C1112      S1118   1.700       .  A
C1112      C1113   1.397       .  A
C1113      C1114   1.398       .  A
C1113      H1122   1.083       .  S
C1114      C1117   1.366       .  A
S1115      C1116   1.727       .  A
C1116      C1117   1.386   1_455  A
C1117      H1123   1.083   1_655  S
S1118      C1119   1.722       .  A
C1119      C1120   1.390       .  A
C1120      H1124   1.083       .  S
C1125      S1131   1.706       .  A
C1125      C1130   1.387       .  A
C1125      C1126   1.399       .  A
C1126      C1127   1.401       .  A
C1126      H1137   1.083       .  S
C1127      C1136   1.367       .  A
C1127      C1128   1.385       .  A
C1128      S1134   1.721       .  A
C1128      C1129   1.410       .  A
C1129      C1130   1.411       .  A
C1129      H1138   1.083       .  S
C1130      C1133   1.379       .  A
S1131      C1132   1.722       .  A
C1132      C1133   1.393       .  A
C1133      H1139   1.083       .  S
S1134      C1135   1.727       .  A
C1135      C1136   1.388       .  A
C1136      H1140   1.084       .  S
C1141      S1147   1.707       .  A
C1141      C1146   1.387       .  A
C1141      C1142   1.402       .  A
C1142      C1143   1.403   1_545  A
C1142      H1153   1.083       .  S
C1143      C1152   1.374       .  A
C1143      C1144   1.387   1_565  A
C1144      S1150   1.707   1_545  A
C1144      C1145   1.404       .  A
C1145      C1146   1.404       .  A
C1145      H1154   1.083       .  S
C1146      C1149   1.374       .  A
S1147      C1148   1.723       .  A
C1148      C1149   1.389       .  A
C1149      H1155   1.083       .  S
S1150      C1151   1.726       .  A
C1151      C1152   1.386       .  A
C1152      H1156   1.083       .  S
C1157      S1163   1.723       .  A
C1157      C1162   1.385       .  A
C1157      C1158   1.405       .  A
C1158      C1159   1.410       .  A
C1158      H1169   1.083       .  S
C1159      C1168   1.369       .  A
C1159      C1160   1.385       .  A
C1160      S1166   1.719       .  A
C1160      C1161   1.401       .  A
C1161      C1162   1.406       .  A
C1161      H1170   1.083       .  S
C1162      C1165   1.366       .  A
S1163      C1164   1.725       .  A
C1164      C1165   1.392       .  A
C1165      H1171   1.083       .  S
S1166      C1167   1.722       .  A
C1167      C1168   1.394       .  A
C1168      H1172   1.083       .  S
C1173      S1179   1.715       .  A
C1173      C1178   1.387       .  A
C1173      C1174   1.405       .  A
C1174      C1175   1.407       .  A
C1174      H1185   1.083       .  S
C1175      C1184   1.372       .  A
C1175      C1176   1.388       .  A
C1176      S1182   1.694       .  A
C1176      C1177   1.390       .  A
C1177      C1178   1.392       .  A
C1177      H1186   1.083       .  S
C1178      C1181   1.356       .  A
S1179      C1180   1.724       .  A
C1180      C1181   1.379       .  A
C1181      H1187   1.084       .  S
S1182      C1183   1.716       .  A
C1183      C1184   1.388       .  A
C1184      H1188   1.083       .  S
C1189      S1195   1.699       .  A
C1189      C1194   1.388       .  A
C1189      C1190   1.394       .  A
C1190      C1191   1.396       .  A
C1190      H1201   1.083       .  S
C1191      C1200   1.361       .  A
C1191      C1192   1.387       .  A
C1192      S1198   1.712       .  A
C1192      C1193   1.404       .  A
C1193      C1194   1.406       .  A
C1193      H1202   1.083       .  S
C1194      C1197   1.372       .  A
S1195      C1196   1.718       .  A
C1196      C1197   1.387       .  A
C1197      H1203   1.083       .  S
S1198      C1199   1.725       .  A
C1199      C1200   1.383       .  A
C1200      H1204   1.084       .  S
C1205      S1211   1.698       .  A
C1205      C1210   1.387       .  A
C1205      C1206   1.396       .  A
C1206      C1207   1.397       .  A
C1206      H1217   1.083       .  S
C1207      C1216   1.365       .  A
C1207      C1208   1.385       .  A
C1208      S1214   1.719       .  A
C1208      C1209   1.410       .  A
C1209      C1210   1.411       .  A
C1209      H1218   1.083       .  S
C1210      C1213   1.382       .  A
S1211      C1212   1.722       .  A
C1212      C1213   1.392       .  A
C1213      H1219   1.083       .  S
S1214      C1215   1.729       .  A
C1215      C1216   1.386       .  A
C1216      H1220   1.084       .  S
C1221      S1227   1.696       .  A
C1221      C1226   1.387       .  A
C1221      C1222   1.393       .  A
C1222      C1223   1.395       .  A
C1222      H1233   1.083       .  S
C1223      C1232   1.360       .  A
C1223      C1224   1.386       .  A
C1224      S1230   1.718       .  A
C1224      C1225   1.407       .  A
C1225      C1226   1.409       .  A
C1225      H1234   1.083       .  S
C1226      C1229   1.375       .  A
S1227      C1228   1.721       .  A
C1228      C1229   1.391       .  A
C1229      H1235   1.083       .  S
S1230      C1231   1.726   1_545  A
C1231      C1232   1.383   1_565  A
C1232      H1236   1.084   1_545  S
C1237      S1243   1.719       .  A
C1237      C1242   1.385       .  A
C1237      C1238   1.402       .  A
C1238      C1239   1.407       .  A
C1238      H1249   1.083       .  S
C1239      C1248   1.366       .  A
C1239      C1240   1.385       .  A
C1240      S1246   1.722       .  A
C1240      C1241   1.404       .  A
C1241      C1242   1.409       .  A
C1241      H1250   1.083       .  S
C1242      C1245   1.368       .  A
S1243      C1244   1.723       .  A
C1244      C1245   1.393       .  A
C1245      H1251   1.083       .  S
S1246      C1247   1.723       .  A
C1247      C1248   1.391       .  A
C1248      H1252   1.084       .  S
C1253      S1259   1.718       .  A
C1253      C1258   1.386       .  A
C1253      C1254   1.408       .  A
C1254      C1255   1.409       .  A
C1254      H1265   1.083       .  S
C1255      C1264   1.377       .  A
C1255      C1256   1.387       .  A
C1256      S1262   1.703       .  A
C1256      C1257   1.398       .  A
C1257      C1258   1.400       .  A
C1257      H1266   1.083       .  S
C1258      C1261   1.366       .  A
S1259      C1260   1.726       .  A
C1260      C1261   1.387       .  A
C1261      H1267   1.084       .  S
S1262      C1263   1.722       .  A
C1263      C1264   1.391       .  A
C1264      H1268   1.083       .  S
C1269      S1275   1.710   1_565  A
C1269      C1274   1.387       .  A
C1269      C1270   1.404       .  A
C1270      C1271   1.405       .  A
C1270      H1281   1.083       .  S
C1271      C1280   1.373       .  A
C1271      C1272   1.388       .  A
C1272      S1278   1.698       .  A
C1272      C1273   1.397       .  A
C1273      C1274   1.397       .  A
C1273      H1282   1.083       .  S
C1274      C1277   1.365   1_565  A
S1275      C1276   1.723       .  A
C1276      C1277   1.383       .  A
C1277      H1283   1.083       .  S
S1278      C1279   1.723       .  A
C1279      C1280   1.388       .  A
C1280      H1284   1.083       .  S
C1285      S1291   1.702       .  A
C1285      C1290   1.387       .  A
C1285      C1286   1.399       .  A
C1286      C1287   1.400       .  A
C1286      H1297   1.083       .  S
C1287      C1296   1.369       .  A
C1287      C1288   1.386       .  A
C1288      S1294   1.715       .  A
C1288      C1289   1.408       .  A
C1289      C1290   1.408       .  A
C1289      H1298   1.083       .  S
C1290      C1293   1.378       .  A
S1291      C1292   1.723       .  A
C1292      C1293   1.390       .  A
C1293      H1299   1.083       .  S
S1294      C1295   1.727       .  A
C1295      C1296   1.386       .  A
C1296      H1300   1.083       .  S
C1301      S1307   1.702       .  A
C1301      C1306   1.388       .  A
C1301      C1302   1.397       .  A
C1302      C1303   1.399       .  A
C1302      H1313   1.083       .  S
C1303      C1312   1.367       .  A
C1303      C1304   1.387       .  A
C1304      S1310   1.714       .  A
C1304      C1305   1.406       .  A
C1305      C1306   1.407       .  A
C1305      H1314   1.083       .  S
C1306      C1309   1.375       .  A
S1307      C1308   1.720       .  A
C1308      C1309   1.389       .  A
C1309      H1315   1.083       .  S
S1310      C1311   1.725       .  A
C1311      C1312   1.385       .  A
C1312      H1316   1.083       .  S
C1317      S1323   1.708       .  A
C1317      C1322   1.387       .  A
C1317      C1318   1.404   1_455  A
C1318      C1319   1.404       .  A
C1318      H1329   1.083       .  S
C1319      C1328   1.375       .  A
C1319      C1320   1.387       .  A
C1320      S1326   1.710       .  A
C1320      C1321   1.405   1_655  A
C1321      C1322   1.405       .  A
C1321      H1330   1.083       .  S
C1322      C1325   1.377       .  A
S1323      C1324   1.725       .  A
C1324      C1325   1.389       .  A
C1325      H1331   1.083       .  S
S1326      C1327   1.725       .  A
C1327      C1328   1.389       .  A
C1328      H1332   1.083       .  S
