geometry optimzed in LAMMPS
_audit_creation_date              2020-11-30 
_audit_creation_method            'lammps2cif' 
_symmetry_space_group_name_H-M    'P1' 
_symmetry_Int_Tables_number       1 
_symmetry_cell_setting            triclinic 
loop_ 
_symmetry_equiv_pos_as_xyz 
  x,y,z 
_cell_length_a                    28.290510390434036 
_cell_length_b                    28.396661743312485 
_cell_length_c                    37.252749915699006 
_cell_angle_alpha                 89.88826500702196 
_cell_angle_beta                  90.08064194830152 
_cell_angle_gamma                 90.20715435619981 
loop_ 
_atom_site_label 
_atom_site_type_symbol 
_atom_site_fract_x 
_atom_site_fract_y 
_atom_site_fract_z 
_atom_site_charge 
Fe1        Fe  0.99545097  0.70718388  0.57745049     1.65780
Fe2        Fe  0.05786081  0.63290040  0.62901586     1.73250
Fe3        Fe  0.06202479  0.74937298  0.64350509     1.54420
O4          O  0.05856455  0.79706380  0.60018202    -0.82750
O5          O  0.03791901  0.64398420  0.68065990    -0.80810
O6          O  0.04330314  0.75172339  0.55325359    -0.85010
O7          O  0.96485361  0.76336776  0.60436124    -0.79870
O8          O  0.12455611  0.73161373  0.62405018    -0.81640
O9          O  0.99040491  0.60454294  0.62050698    -0.84390
C10         C  0.96639331  0.78206024  0.63547289     0.96380
C11         C  0.05964522  0.78962734  0.56647051     1.03820
O12         O  0.03762547  0.69602482  0.61678950    -1.13370
O13         O  0.07856325  0.61837379  0.57757187    -0.75800
O14         O  0.02199082  0.65293196  0.54547265    -0.79290
O15         O  0.99593622  0.76974781  0.65955583    -0.79980
C16         C  0.05763242  0.62587387  0.54799447     0.95280
O17         O  0.94648651  0.66392668  0.60047535    -0.77930
O18         O  0.12738491  0.65656730  0.64058161    -0.83130
C19         C  0.06688023  0.66633341  0.69989297     0.97910
C20         C  0.14667417  0.69705190  0.63632345     1.03820
O21         O  0.07703633  0.70883870  0.69123393    -0.78770
C22         C  0.95024035  0.62319257  0.61398884     1.02120
Fe23       Fe  0.21272403  0.48215406  0.92257093     1.65780
Fe24       Fe  0.14455604  0.54408518  0.86588500     1.73250
Fe25       Fe  0.26071673  0.54081952  0.85470109     1.54410
O26         O  0.30733895  0.53409602  0.89847651    -0.82510
O27         O  0.15631918  0.52139538  0.81517101    -0.80810
O28         O  0.25909080  0.53033692  0.94495968    -0.85010
O29         O  0.26728317  0.44636788  0.89674466    -0.79870
O30         O  0.24781695  0.60472476  0.87315225    -0.81640
O31         O  0.11241284  0.47806302  0.87453549    -0.84390
C32         C  0.28450276  0.44442603  0.86500698     0.96380
C33         C  0.29802878  0.54312643  0.93114884     1.03820
O34         O  0.20520492  0.52127534  0.88093366    -1.13370
O35         O  0.12947871  0.56783258  0.91583804    -0.75800
O36         O  0.15937741  0.51425031  0.95263076    -0.79290
O37         O  0.27357120  0.47319521  0.84014286    -0.79980
C38         C  0.13409133  0.55049749  0.94683540     0.95280
O39         O  0.16692574  0.43372241  0.90151550    -0.77930
O40         O  0.17381840  0.61202414  0.85430777    -0.83130
C41         C  0.18094161  0.54840583  0.79613700     0.97910
C42         C  0.21526378  0.62912956  0.86025124     1.03820
O43         O  0.22303295  0.55811569  0.80627437    -0.78770
C44         C  0.12841443  0.43789435  0.88422192     1.02120
Fe45       Fe  0.48559525  0.75213870  0.57402530     1.65780
Fe46       Fe  0.42026423  0.82147745  0.62743839     1.73250
Fe47       Fe  0.42734657  0.70614904  0.64242746     1.54410
O48         O  0.43468586  0.65873359  0.59995625    -0.82510
O49         O  0.44185874  0.81408160  0.67916418    -0.80810
O50         O  0.43801223  0.70487874  0.55213556    -0.85010
O51         O  0.52153242  0.69836417  0.60084399    -0.79870
O52         O  0.36399920  0.71799358  0.62228086    -0.81640
O53         O  0.48615918  0.85435331  0.61824413    -0.84390
C54         C  0.52364109  0.68067199  0.63245687     0.96380
C55         C  0.42608155  0.66649147  0.56703918     1.03820
O56         O  0.44605354  0.76084499  0.61521355    -1.13370
O57         O  0.39615427  0.83235055  0.57634841    -0.75800
O58         O  0.45391126  0.80409655  0.54228229    -0.79290
O59         O  0.49541640  0.69249406  0.65755064    -0.79980
C60         C  0.41517730  0.82610277  0.54601695     0.95280
O61         O  0.53269152  0.79870450  0.59518383    -0.77930
O62         O  0.35289852  0.79125909  0.63976413    -0.83130
C63         C  0.41685952  0.78821135  0.69899267     0.97910
C64         C  0.33772332  0.74917659  0.63435311     1.03820
O65         O  0.40915570  0.74544880  0.68979227    -0.78770
C66         C  0.52718321  0.83797069  0.61089470     1.02120
Fe67       Fe  0.26088407  0.96945587  0.92045796     1.65780
Fe68       Fe  0.33378351  0.90719457  0.86797223     1.73250
Fe69       Fe  0.21745955  0.90722143  0.85277470     1.54420
O70         O  0.16938563  0.91058917  0.89566715    -0.82510
O71         O  0.32466712  0.92923446  0.81664670    -0.80810
O72         O  0.21551439  0.92160497  0.94297343    -0.85010
O73         O  0.20516219  0.00233733  0.89371564    -0.79870
O74         O  0.23314302  0.84430213  0.87211181    -0.81640
O75         O  0.36425318  0.97390649  0.87809490    -0.84390
C76         C  0.18641746  0.00213742  0.86247256     0.96380
C77         C  0.17681606  0.90806236  0.92933755     1.03820
O78         O  0.27128227  0.92932115  0.87997666    -1.13370
O79         O  0.34476076  0.88317138  0.91892747    -0.75800
O80         O  0.31374230  0.93973591  0.95255955    -0.79290
O81         O  0.19919429  0.97405617  0.83768590    -0.79980
C82         C  0.33584905  0.90104728  0.94924574     0.95280
O83         O  0.30562386  0.01801020  0.89910423    -0.77930
O84         O  0.30754298  0.83868642  0.85477507    -0.83130
C85         C  0.30152302  0.90142784  0.79703014     0.97910
C86         C  0.26628306  0.82079034  0.85943551     1.03820
O87         O  0.25844478  0.89250476  0.80527872    -0.78770
C88         C  0.34619209  0.01417621  0.88524434     1.02120
Fe89       Fe  0.71664823  0.46735796  0.57275127     1.65780
Fe90       Fe  0.64186059  0.40751555  0.62665956     1.73250
Fe91       Fe  0.75870120  0.41115145  0.64463619     1.54410
O92         O  0.80819824  0.41294047  0.60241283    -0.82510
O93         O  0.65052119  0.42876725  0.67820007    -0.80810
O94         O  0.76500151  0.41978772  0.55288333    -0.85010
O95         O  0.76992632  0.50382197  0.59941679    -0.79870
O96         O  0.74632603  0.34533801  0.63112727    -0.81640
O97         O  0.61309310  0.47398539  0.61785360    -0.84390
C98         C  0.78615098  0.50742637  0.63129982     0.96380
C99         C  0.80253575  0.40702059  0.56877584     1.03820
O100        O  0.70515218  0.42859924  0.61441865    -1.13370
O101        O  0.62627181  0.38502292  0.57569084    -0.75800
O102        O  0.66579164  0.43484092  0.54049266    -0.79290
O103        O  0.77348198  0.48002636  0.65664349    -0.79980
C104        C  0.63648476  0.40131053  0.54502110     0.95280
O105        O  0.66978894  0.51639878  0.59159009    -0.77930
O106        O  0.66779974  0.33947830  0.63793895    -0.83130
C107        C  0.67493800  0.40426199  0.69918591     0.97910
C108        C  0.70922512  0.32150514  0.63590425     1.03820
O109        O  0.71831883  0.39716798  0.69185140    -0.78770
C110        C  0.63100022  0.51349513  0.60851165     1.02120
Fe111      Fe  0.49184375  0.25544087  0.92687620     1.65780
Fe112      Fe  0.55905484  0.32714858  0.87684833     1.73250
Fe113      Fe  0.55589225  0.21061826  0.85950534     1.54420
O114        O  0.55170973  0.16365498  0.90354298    -0.82510
O115        O  0.54235788  0.31937139  0.82426814    -0.80810
O116        O  0.53793354  0.20985920  0.95004871    -0.85010
O117        O  0.45853432  0.20045658  0.89990351    -0.79870
O118        O  0.62095358  0.22322292  0.87571478    -0.81640
O119        O  0.49280589  0.35707363  0.88241575    -0.84390
C120        C  0.45865086  0.18177682  0.86877241     0.96380
C121        C  0.55441635  0.17225047  0.93716331     1.03820
O122        O  0.53516349  0.26486756  0.88750274    -1.13370
O123        O  0.57806739  0.33966783  0.92850255    -0.75800
O124        O  0.52040167  0.30742433  0.96061898    -0.79290
O125        O  0.48802311  0.19385955  0.84454840    -0.79980
C126        C  0.55831795  0.33130834  0.95815093     0.95280
O127        O  0.44523472  0.30106884  0.90415526    -0.77930
O128        O  0.62758665  0.30143089  0.87072967    -0.83130
C129        C  0.56700041  0.29381340  0.80418665     0.97910
C130        C  0.64496121  0.26058190  0.87601608     1.03820
O131        O  0.57239013  0.25033265  0.81211300    -0.78770
C132        C  0.45180322  0.34057197  0.88891219     1.02120
Fe133      Fe  0.76741585  0.97824599  0.56969168     1.65780
Fe134      Fe  0.83779271  0.04976763  0.61733910     1.73250
Fe135      Fe  0.72393361  0.03623888  0.64041449     1.54420
O136        O  0.67369058  0.03022091  0.59889176    -0.82510
O137        O  0.83713503  0.02883513  0.66902097    -0.80810
O138        O  0.71557564  0.02104440  0.54866159    -0.85010
O139        O  0.71606074  0.94083569  0.59782369    -0.79870
O140        O  0.72895594  0.10274289  0.62561646    -0.81640
O141        O  0.87318285  0.98679999  0.60760415    -0.84390
C142        C  0.70051610  0.93883099  0.62989242     0.96380
C143        C  0.67808700  0.03364654  0.56485094     1.03820
O144        O  0.77663682  0.02144351  0.60902766    -1.13370
O145        O  0.84316815  0.07220819  0.56611296    -0.75800
O146        O  0.81655549  0.01078314  0.53514808    -0.79290
O147        O  0.71442111  0.96702119  0.65423128    -0.79980
C148        C  0.83718396  0.05061831  0.53695017     0.95280
O149        O  0.81765265  0.93498918  0.59138409    -0.77930
O150        O  0.80663408  0.11550252  0.62860615    -0.83130
C151        C  0.81208752  0.05103960  0.69075067     0.97910
C152        C  0.76388872  0.13005717  0.62727505     1.03820
O153        O  0.76735554  0.05325086  0.68580771    -0.78770
C154        C  0.85813393  0.94462237  0.60434284     1.02120
Fe155      Fe  0.99053148  0.19904575  0.92796378     1.65780
Fe156      Fe  0.91362271  0.12810171  0.88470962     1.73250
Fe157      Fe  0.93185954  0.24002344  0.85548442     1.54420
O158        O  0.93787586  0.29147437  0.89589597    -0.82510
O159        O  0.91748448  0.12328699  0.83057840    -0.80810
O160        O  0.94939410  0.25273885  0.94742106    -0.85010
O161        O  0.02848019  0.24785078  0.89798978    -0.79870
O162        O  0.86471081  0.23717461  0.86892743    -0.81640
O163        O  0.97867644  0.09339397  0.88657620    -0.84390
C164        C  0.03005246  0.26298505  0.86586530     0.96380
C165        C  0.93572680  0.28888763  0.93009777     1.03820
O166        O  0.94564186  0.18842073  0.88886578    -1.13370
O167        O  0.90079512  0.12131970  0.93753753    -0.75800
O168        O  0.95988438  0.15441967  0.96672402    -0.79290
O169        O  0.00160332  0.24851614  0.84183659    -0.79980
C170        C  0.92192183  0.13063084  0.96621976     0.95280
O171        O  0.03143320  0.14606398  0.90773800    -0.77930
O172        O  0.84867263  0.16224147  0.88265789    -0.83130
C173        C  0.90670208  0.15253199  0.80663596     0.97910
C174        C  0.83640701  0.20498058  0.87760380     1.03820
O175        O  0.91464261  0.19668518  0.81042930    -0.78770
C176        C  0.02114579  0.10718345  0.89251360     1.02120
Fe177      Fe  0.76849006  0.47358886  0.06523396     1.65780
Fe178      Fe  0.83851137  0.40102161  0.11171859     1.73250
Fe179      Fe  0.72439870  0.41733998  0.13912225     1.54410
O180        O  0.70755014  0.48763834  0.14834483    -0.82510
O181        O  0.80448475  0.33675377  0.10439151    -0.80810
O182        O  0.71936519  0.51313426  0.09280753    -0.85010
O183        O  0.71486304  0.43262665  0.04622112    -0.79870
O184        O  0.76564299  0.41088677  0.18720738    -0.81640
O185        O  0.85923425  0.39748363  0.06005935    -0.84390
C186        C  0.67926833  0.41584746  0.06253419     0.96380
C187        C  0.69847613  0.51624588  0.12281687     1.03820
O188        O  0.77746850  0.43145163  0.10603617    -1.13370
O189        O  0.87022273  0.46723067  0.11816877    -0.75800
O190        O  0.82365676  0.51459630  0.08442689    -0.79290
O191        O  0.67517341  0.41605092  0.09665587    -0.79980
C192        C  0.85945755  0.50753175  0.10483221     0.95280
O193        O  0.81160854  0.44023684  0.02731064    -0.77930
O194        O  0.83524317  0.39254338  0.16483736    -0.83130
C195        C  0.76314435  0.32244872  0.11346512     0.97910
C196        C  0.80776028  0.39514333  0.19099505     1.03820
O197        O  0.73360641  0.34754916  0.13018708    -0.78770
C198        C  0.84560999  0.41173903  0.03003757     1.02120
Fe199      Fe  0.99093428  0.25269230  0.42806919     1.65780
Fe200      Fe  0.91633634  0.32634519  0.38680641     1.73250
Fe201      Fe  0.92508718  0.21359872  0.35729283     1.54420
O202        O  0.99327167  0.19249525  0.34532699    -0.82510
O203        O  0.85222463  0.29488057  0.40097120    -0.80810
O204        O  0.03077568  0.20655515  0.39707226    -0.85010
O205        O  0.95359102  0.19708260  0.44796244    -0.79870
O206        O  0.92014139  0.25628505  0.31050339    -0.81640
O207        O  0.92530268  0.35022847  0.43788930    -0.84390
C208        C  0.92972094  0.16518669  0.43265094     0.96380
C209        C  0.02683370  0.18466212  0.36738636     1.03820
O210        O  0.94511337  0.26406882  0.39001619    -1.13370
O211        O  0.98256576  0.35359708  0.37317495    -0.75800
O212        O  0.03000811  0.30982524  0.40870529    -0.79290
O213        O  0.92244912  0.16399992  0.39891452    -0.79980
C214        C  0.02344557  0.34326136  0.38598182     0.95280
O215        O  0.95472046  0.29058228  0.46747247    -0.77930
O216        O  0.89598191  0.32273384  0.33492862    -0.83130
C217        C  0.83463725  0.25591631  0.38950881     0.97910
C218        C  0.89969263  0.29626053  0.30828344     1.03820
O219        O  0.85624453  0.22806623  0.36865627    -0.78770
C220        C  0.93222666  0.32889192  0.46679476     1.02120
Fe221      Fe  0.71333407  0.97913945  0.07135024     1.65780
Fe222      Fe  0.64023816  0.04828409  0.11508159     1.73250
Fe223      Fe  0.75303789  0.04019959  0.14430172     1.54410
O224        O  0.77877915  0.97217467  0.15241157    -0.82510
O225        O  0.67128514  0.11162418  0.09891328    -0.80810
O226        O  0.75635118  0.93702612  0.10170207    -0.85010
O227        O  0.77145095  0.01564549  0.05340337    -0.79870
O228        O  0.70944219  0.03985080  0.19080736    -0.81640
O229        O  0.61515315  0.03249844  0.06515163    -0.84390
C230        C  0.80228346  0.04067174  0.06917847     0.96380
C231        C  0.78287309  0.93946038  0.12909675     1.03820
O232        O  0.70282233  0.02113856  0.11119973    -1.13370
O233        O  0.61574637  0.98237043  0.13106054    -0.75800
O234        O  0.65406131  0.94007218  0.08895772    -0.79290
O235        O  0.80202246  0.04813782  0.10283252    -0.79980
C236        C  0.62446136  0.94322926  0.11509929     0.95280
O237        O  0.67799399  0.02054564  0.03363729    -0.77930
O238        O  0.64669956  0.07202249  0.16571103    -0.83130
C239        C  0.70873793  0.12988522  0.11291306     0.97910
C240        C  0.67200223  0.06499143  0.19272800     1.03820
O241        O  0.73437443  0.10888896  0.13595625    -0.78770
C242        C  0.63760884  0.03825684  0.03665202     1.02120
Fe243      Fe  0.48807561  0.19865268  0.43055244     1.65780
Fe244      Fe  0.56324013  0.12905559  0.38843157     1.73250
Fe245      Fe  0.55268274  0.23963069  0.35951282     1.54410
O246        O  0.48491496  0.26598618  0.35156329    -0.82510
O247        O  0.62463769  0.16241602  0.40670499    -0.80810
O248        O  0.44600962  0.24415513  0.40103367    -0.85010
O249        O  0.52277182  0.25625055  0.45066766    -0.79870
O250        O  0.55115189  0.19622186  0.31235822    -0.81640
O251        O  0.54679086  0.10083555  0.43675480    -0.84390
C252        C  0.54980200  0.28665532  0.43633236     0.96380
C253        C  0.45069460  0.27051097  0.37358677     1.03820
O254        O  0.53286059  0.18971112  0.39202114    -1.13370
O255        O  0.49937596  0.10200955  0.37069194    -0.75800
O256        O  0.45110721  0.14038391  0.40936175    -0.79290
O257        O  0.56145915  0.28581788  0.40316193    -0.79980
C258        C  0.45847990  0.11008411  0.38424944     0.95280
O259        O  0.52778248  0.16095489  0.46889683    -0.77930
O260        O  0.58797795  0.13736346  0.33853045    -0.83130
C261        C  0.64234559  0.19909753  0.39136306     0.97910
C262        C  0.57642250  0.15876510  0.31053224     1.03820
O263        O  0.62148785  0.22078501  0.36623069    -0.78770
C264        C  0.54697807  0.12106677  0.46635883     1.02120
Fe265      Fe  0.48137015  0.70947053  0.06928884     1.65780
Fe266      Fe  0.41526665  0.62656282  0.10666036     1.73250
Fe267      Fe  0.40791901  0.73811407  0.13798190     1.54410
O268        O  0.47144529  0.77287328  0.14833611    -0.82510
O269        O  0.35060995  0.65210862  0.08713945    -0.80810
O270        O  0.52039527  0.75065950  0.10428654    -0.85010
O271        O  0.44488844  0.76740123  0.05268944    -0.79870
O272        O  0.41381336  0.69461790  0.18347316    -0.81640
O273        O  0.43559132  0.60773527  0.05565092    -0.84390
C274        C  0.41107563  0.79127666  0.06516232     0.96380
C275        C  0.51002730  0.77697812  0.13087027     1.03820
O276        O  0.43673561  0.69199904  0.10606302    -1.13370
O277        O  0.48279472  0.60646023  0.12394774    -0.75800
O278        O  0.52227179  0.65118973  0.08408221    -0.79290
O279        O  0.39459276  0.78547140  0.09654980    -0.79980
C280        C  0.52137597  0.61876618  0.10821005     0.95280
O281        O  0.44206353  0.67562395  0.02927294    -0.77930
O282        O  0.38905163  0.62882004  0.15798374    -0.83130
C283        C  0.32826823  0.68735944  0.10019129     0.97910
C284        C  0.39259236  0.65486660  0.18524527     1.03820
O285        O  0.34256666  0.70916895  0.12798671    -0.78770
C286        C  0.42852191  0.63330743  0.02876624     1.02120
Fe287      Fe  0.25889010  0.48218086  0.43176088     1.65780
Fe288      Fe  0.33870458  0.55198169  0.39481899     1.73250
Fe289      Fe  0.22635206  0.55618572  0.36402156     1.54420
O290        O  0.19516381  0.49157786  0.35260186    -0.82510
O291        O  0.31207672  0.61625042  0.41408362    -0.80810
O292        O  0.21939222  0.44232442  0.39613700    -0.85010
O293        O  0.19872815  0.51477375  0.44826676    -0.79870
O294        O  0.27018477  0.55471261  0.31784510    -0.81640
O295        O  0.35839567  0.53073986  0.44510655    -0.84390
C296        C  0.17101132  0.54589189  0.43636922     0.96380
C297        C  0.19266529  0.45255801  0.36964865     1.03820
O298        O  0.27395116  0.52863162  0.39558677    -1.13370
O299        O  0.36045478  0.48605040  0.37662785    -0.75800
O300        O  0.31917427  0.44420264  0.41707885    -0.79290
O301        O  0.17716633  0.56515568  0.40575771    -0.79980
C302        C  0.35030213  0.44688892  0.39209779     0.95280
O303        O  0.29136297  0.52156056  0.47230615    -0.77930
O304        O  0.33572253  0.57803309  0.34419846    -0.83130
C305        C  0.27638296  0.63820883  0.40087813     0.97910
C306        C  0.31073692  0.57485210  0.31649902     1.03820
O307        O  0.25165174  0.62211118  0.37510665    -0.78770
C308        C  0.33332963  0.53660788  0.47232219     1.02120
Fe309      Fe  0.99363750  0.74903487  0.07101461     1.65780
Fe310      Fe  0.06453712  0.82554785  0.10925999     1.73250
Fe311      Fe  0.06970614  0.71196017  0.13543240     1.54420
O312        O  0.00568305  0.67655609  0.14379498    -0.82510
O313        O  0.12745135  0.79971855  0.08715979    -0.80810
O314        O  0.95344678  0.71291931  0.10789524    -0.85010
O315        O  0.02255637  0.68754306  0.05400322    -0.79870
O316        O  0.06532011  0.75175209  0.18284074    -0.81640
O317        O  0.04076224  0.84628314  0.05976545    -0.84390
C318        C  0.05820799  0.66299146  0.06217359     0.96380
C319        C  0.96584687  0.67843174  0.12763782     1.03820
O320        O  0.04104979  0.76141311  0.10668632    -1.13370
O321        O  0.99894454  0.84674844  0.12959203    -0.75800
O322        O  0.95892650  0.81006166  0.08596919    -0.79290
O323        O  0.08105010  0.66907000  0.09116544    -0.79980
C324        C  0.96034752  0.83861672  0.11251294     0.95280
O325        O  0.03392425  0.78099589  0.03045369    -0.77930
O326        O  0.09264632  0.81853367  0.15947559    -0.83130
C327        C  0.14964495  0.76367229  0.09916688     0.97910
C328        C  0.08660243  0.79137599  0.18588927     1.03820
O329        O  0.13531417  0.74046563  0.12629620    -0.78770
C330        C  0.04810100  0.82316871  0.03168499     1.02120
Fe331      Fe  0.21919450  0.97185215  0.42446133     1.65780
Fe332      Fe  0.13965646  0.90502570  0.38379038     1.73250
Fe333      Fe  0.25231794  0.89800459  0.35657475     1.54410
O334        O  0.28810874  0.96037277  0.34809653    -0.82510
O335        O  0.16517597  0.84068198  0.40455767    -0.80810
O336        O  0.26443543  0.01005657  0.39133313    -0.85010
O337        O  0.27569106  0.93459910  0.44384490    -0.79870
O338        O  0.21200359  0.90504303  0.30929338    -0.81640
O339        O  0.11743521  0.92759808  0.43265109    -0.84390
C340        C  0.30016246  0.90068839  0.43215817     0.96380
C341        C  0.29237724  0.99826536  0.36600078     1.03820
O342        O  0.20449394  0.92716024  0.38682092    -1.13370
O343        O  0.12014786  0.97167775  0.36555249    -0.75800
O344        O  0.16193869  0.01317059  0.40639190    -0.79290
O345        O  0.29600432  0.88425861  0.40054077    -0.79980
C346        C  0.13046360  0.01060501  0.38142857     0.95280
O347        O  0.18137392  0.93335566  0.46347079    -0.77930
O348        O  0.14514642  0.87913910  0.33309607    -0.83130
C349        C  0.20065555  0.81843159  0.39144891     0.97910
C350        C  0.17122977  0.88589734  0.30621329     1.03820
O351        O  0.22233785  0.83315173  0.36387254    -0.78770
C352        C  0.13942834  0.91853228  0.46071056     1.02120
C353        C  0.17774993  0.83219352  0.25341246    -0.09990
C354        C  0.15221629  0.86657709  0.27209982     0.06210
C355        C  0.10374961  0.87241105  0.26372867    -0.03750
C356        C  0.08167388  0.84388943  0.23806178    -0.08200
C357        C  0.10677489  0.80894713  0.21990067     0.05320
C358        C  0.15560977  0.80401769  0.22721090    -0.03230
Br359      Br  0.19390481  0.76028412  0.20115184    -0.02920
H360        H  0.21454803  0.82614246  0.25998290     0.09240
H361        H  0.04507418  0.85045545  0.23108870     0.07250
Br362      Br  0.06598644  0.92006428  0.28587930    -0.03350
C363        C  0.21120935  0.69062233  0.41721231    -0.09990
C364        C  0.26052955  0.68446224  0.41398745     0.06210
C365        C  0.28959015  0.72432392  0.41184720    -0.03750
C366        C  0.26877186  0.76867413  0.40846975    -0.08200
C367        C  0.21915847  0.77416615  0.40685109     0.05320
C368        C  0.19033950  0.73483406  0.41275178    -0.03230
Br369      Br  0.12328386  0.73806362  0.40655191    -0.02920
H370        H  0.18846710  0.65999438  0.41841651     0.09240
H371        H  0.29175697  0.79845222  0.40381218     0.07250
Br372      Br  0.35689968  0.71960795  0.40714941    -0.03350
C373        C  0.27888289  0.75473367  0.08233289    -0.09990
C374        C  0.28404638  0.70536933  0.08434799     0.06210
C375        C  0.24412469  0.67679894  0.07949945    -0.03750
C376        C  0.19943059  0.69773949  0.07910388    -0.08200
C377        C  0.19414342  0.74687630  0.08329618     0.05320
C378        C  0.23431148  0.77566623  0.08172168    -0.03230
Br379      Br  0.23059925  0.84296576  0.08480004    -0.02920
H380        H  0.30923939  0.77732858  0.08491026     0.09240
H381        H  0.16873889  0.67513098  0.07914747     0.07250
Br382      Br  0.24812183  0.60943193  0.07879638    -0.03350
C383        C  0.39117895  0.64531032  0.25206473    -0.09990
C384        C  0.36982997  0.63716378  0.21890930     0.06210
C385        C  0.32744972  0.60999795  0.21815845    -0.03750
C386        C  0.30883962  0.59016338  0.24977063    -0.08200
C387        C  0.33107715  0.59678284  0.28300532     0.05320
C388        C  0.37268722  0.62584091  0.28375321    -0.03230
Br389      Br  0.40748146  0.64255067  0.32641207    -0.02920
H390        H  0.42319393  0.66631104  0.25329896     0.09240
H391        H  0.27666379  0.56947687  0.24825217     0.07250
Br392      Br  0.29113741  0.60053835  0.17516436    -0.03350
C393        C  0.42099784  0.03332493  0.36893376    -0.09990
C394        C  0.41746843  0.08232233  0.37135617     0.06210
C395        C  0.37360959  0.10366358  0.36386738    -0.03750
C396        C  0.33279017  0.07607832  0.35995278    -0.08200
C397        C  0.33558426  0.02687414  0.36066558     0.05320
C398        C  0.38075816  0.00557412  0.36302141    -0.03230
Br399      Br  0.38987836  0.93860529  0.36211882    -0.02920
H400        H  0.45475270  0.01637130  0.37342784     0.09240
H401        H  0.29878364  0.09304059  0.35681781     0.07250
Br402      Br  0.36862121  0.16981337  0.35568589    -0.03350
C403        C  0.43783646  0.35454936  0.35589122    -0.09990
C404        C  0.41900145  0.31258167  0.37054637     0.06210
C405        C  0.37552804  0.31566284  0.38914274    -0.03750
C406        C  0.35358460  0.35924321  0.39381723    -0.08200
C407        C  0.37411032  0.40165898  0.38173066     0.05320
C408        C  0.41644803  0.39866693  0.36166908    -0.03230
Br409      Br  0.44970031  0.45313496  0.34425881    -0.02920
H410        H  0.47159837  0.35375822  0.34222273     0.09240
H411        H  0.32056465  0.35982573  0.40849791     0.07250
Br412      Br  0.34434383  0.26301632  0.41128510    -0.03350
C413        C  0.86056721  0.91237307  0.15570373    -0.09990
C414        C  0.82418092  0.90647343  0.12999424     0.06210
C415        C  0.83323239  0.87586540  0.10064909    -0.03750
C416        C  0.87713943  0.85496130  0.09686461    -0.08200
C417        C  0.91444018  0.86250065  0.12114933     0.05320
C418        C  0.90520444  0.89063554  0.15166080    -0.03230
Br419      Br  0.95146320  0.90106267  0.18849648    -0.02920
H420        H  0.85513165  0.93565822  0.17831772     0.09240
H421        H  0.88211045  0.83315474  0.07335333     0.07250
Br422      Br  0.79067837  0.86215743  0.06142120    -0.03350
C423        C  0.55376773  0.90271197  0.14241080    -0.09990
C424        C  0.59865842  0.89950949  0.12643134     0.06210
C425        C  0.61743322  0.85398093  0.12066340    -0.03750
C426        C  0.58947014  0.81391317  0.12619261    -0.08200
C427        C  0.54267015  0.81729752  0.13827351     0.05320
C428        C  0.52599955  0.86230837  0.14873308    -0.03230
Br429      Br  0.46459280  0.87218883  0.16926721    -0.02920
H430        H  0.53915676  0.93696809  0.14854851     0.09240
H431        H  0.60379529  0.77979306  0.11919623     0.07250
Br432      Br  0.68113562  0.84291364  0.10569331    -0.03350
C433        C  0.60713477  0.08739562  0.27956270    -0.09990
C434        C  0.59671784  0.13633100  0.27739973     0.06210
C435        C  0.61547511  0.16153134  0.24813448    -0.03750
C436        C  0.64354844  0.13805802  0.22248890    -0.08200
C437        C  0.65461936  0.08948846  0.22544974     0.05320
C438        C  0.63596539  0.06442335  0.25452312    -0.03230
Br439      Br  0.64707761  0.99824060  0.26014076    -0.02920
H440        H  0.59351984  0.06659504  0.30170810     0.09240
H441        H  0.65603770  0.15773711  0.19937544     0.07250
Br442      Br  0.60489108  0.22771860  0.24231786    -0.03350
C443        C  0.03594995  0.10004125  0.35278310    -0.09990
C444        C  0.05788175  0.14301928  0.36172570     0.06210
C445        C  0.10523491  0.14201209  0.37348465    -0.03750
C446        C  0.12862233  0.09878612  0.37781736    -0.08200
C447        C  0.10558053  0.05539842  0.37143892     0.05320
C448        C  0.05874553  0.05666659  0.35808039    -0.03230
Br449      Br  0.02094480  0.00111212  0.35158165    -0.02920
H450        H  0.99908911  0.09979135  0.34482474     0.09240
H451        H  0.16476786  0.09918491  0.38745382     0.07250
Br452      Br  0.13922374  0.19868938  0.38480346    -0.03350
C453        C  0.10734699  0.44219736  0.35685884    -0.09990
C454        C  0.15165668  0.42098678  0.36264782     0.06210
C455        C  0.15287804  0.37257203  0.37089865    -0.03750
C456        C  0.11063538  0.34774788  0.37648946    -0.08200
C457        C  0.06626992  0.37009411  0.37426969     0.05320
C458        C  0.06497279  0.41756025  0.36280873    -0.03230
Br459      Br  0.00743780  0.45294139  0.35896510    -0.02920
H460        H  0.10543399  0.47951590  0.35092529     0.09240
H461        H  0.11270935  0.31089556  0.38386701     0.07250
Br462      Br  0.21125652  0.33887365  0.37593024    -0.03350
C463        C  0.75129865  0.27664368  0.39622817    -0.09990
C464        C  0.78606944  0.24223803  0.39864118     0.06210
C465        C  0.77235585  0.19434705  0.40291733    -0.03750
C466        C  0.72487112  0.18246291  0.40616668    -0.08200
C467        C  0.69021387  0.21600822  0.39956482     0.05320
C468        C  0.70393575  0.26379122  0.39381281    -0.03230
Br469      Br  0.66300277  0.31281168  0.37624149    -0.02920
H470        H  0.76126208  0.31297640  0.39123730     0.09240
H471        H  0.71509133  0.14566467  0.40880478     0.07250
Br472      Br  0.81379396  0.14162150  0.39772640    -0.03350
C473        C  0.92870667  0.61895372  0.08964180    -0.09990
C474        C  0.93712439  0.63504264  0.12469131     0.06210
C475        C  0.92293925  0.60675826  0.15389290    -0.03750
C476        C  0.89890034  0.56398264  0.14744956    -0.08200
C477        C  0.88985488  0.54878377  0.11210215     0.05320
C478        C  0.90615838  0.57621993  0.08321082    -0.03230
Br479      Br  0.90097649  0.55557291  0.03424876    -0.02920
H480        H  0.94115759  0.63919465  0.06680848     0.09240
H481        H  0.88623625  0.54326561  0.16994664     0.07250
Br482      Br  0.93321559  0.62652734  0.20241836    -0.03350
C483        C  0.60629949  0.60546011  0.09361561    -0.09990
C484        C  0.56790227  0.59521967  0.11639904     0.06210
C485        C  0.57634936  0.56437625  0.14569071    -0.03750
C486        C  0.62061715  0.54186193  0.14939896    -0.08200
C487        C  0.65779613  0.54998782  0.12490462     0.05320
C488        C  0.65039409  0.58417211  0.09769656    -0.03230
Br489      Br  0.69807726  0.60378739  0.06387401    -0.02920
H490        H  0.60216477  0.63001472  0.07155563     0.09240
H491        H  0.62513951  0.51622726  0.17069659     0.07250
Br492      Br  0.52978392  0.55169688  0.18185374    -0.03350
C493        C  0.78346276  0.23962630  0.10514178    -0.09990
C494        C  0.74853021  0.27391088  0.10570234     0.06210
C495        C  0.70033071  0.26016247  0.10253483    -0.03750
C496        C  0.68841631  0.21258043  0.10086622    -0.08200
C497        C  0.72323176  0.17831358  0.10455893     0.05320
C498        C  0.77149136  0.19232150  0.10585440    -0.03230
Br499      Br  0.82408964  0.15083376  0.11226127    -0.02920
H500        H  0.82037869  0.24955300  0.10742881     0.09240
H501        H  0.65146007  0.20242646  0.09998111     0.07250
Br502      Br  0.64796941  0.30289082  0.10317931    -0.03350
C503        C  0.87819161  0.37550452  0.22849450    -0.09990
C504        C  0.82826323  0.37473212  0.22496294     0.06210
C505        C  0.80294255  0.34408021  0.24791981    -0.03750
C506        C  0.82735311  0.31538399  0.27285298    -0.08200
C507        C  0.87725046  0.31519428  0.27510084     0.05320
C508        C  0.90232783  0.34630007  0.25280566    -0.03230
Br509      Br  0.96992116  0.35075576  0.25541637    -0.02920
H510        H  0.89908210  0.39809776  0.21115381     0.09240
H511        H  0.80708884  0.29373619  0.29128710     0.07250
Br512      Br  0.73544168  0.33858488  0.24561193    -0.03350
C513        C  0.91853616  0.37963721  0.00293486    -0.09990
C514        C  0.87056127  0.39157443  0.99844742     0.06210
C515        C  0.84655082  0.37470716  0.96773451    -0.03750
C516        C  0.86966828  0.34400015  0.94393694    -0.08200
C517        C  0.91616783  0.32888676  0.95063356     0.05320
C518        C  0.94106017  0.34826245  0.97976717    -0.03230
Br519      Br  0.00537572  0.33133132  0.98992952    -0.02920
H520        H  0.93790067  0.39241062  0.02611078     0.09240
H521        H  0.85004981  0.32910294  0.92163383     0.07250
Br522      Br  0.78078587  0.38700345  0.95943353    -0.03350
C523        C  0.84997458  0.12758467  0.00203566    -0.09990
C524        C  0.89761094  0.11469555  0.99913973     0.06210
C525        C  0.91531923  0.07907679  0.02185619    -0.03750
C526        C  0.88463881  0.05589895  0.04600100    -0.08200
C527        C  0.83617376  0.06681840  0.04658386     0.05320
C528        C  0.81919661  0.10341436  0.02464749    -0.03230
Br529      Br  0.75355486  0.12062841  0.02341449    -0.02920
H530        H  0.83585422  0.15476872  0.98464222     0.09240
H531        H  0.89805057  0.02785209  0.06289190     0.07250
Br532      Br  0.97943000  0.05815015  0.01822365    -0.03350
C533        C  0.90339457  0.12614776  0.74216799    -0.09990
C534        C  0.88067751  0.13262907  0.77510892     0.06210
C535        C  0.83522250  0.11182852  0.77966563    -0.03750
C536        C  0.81344408  0.08644499  0.75200002    -0.08200
C537        C  0.83651993  0.07856487  0.71959411     0.05320
C538        C  0.88219585  0.09919999  0.71470006    -0.03230
Br539      Br  0.91781897  0.09348384  0.67099836    -0.02920
H540        H  0.93850194  0.14057837  0.73821585     0.09240
H541        H  0.77868433  0.07134064  0.75635650     0.07250
Br542      Br  0.80038047  0.11393450  0.82340075    -0.03350
C543        C  0.89257254  0.05615776  0.48501559    -0.09990
C544        C  0.85472264  0.07480956  0.50476667     0.06210
C545        C  0.84063662  0.12166251  0.49874251    -0.03750
C546        C  0.86607075  0.14999870  0.47519843    -0.08200
C547        C  0.90438530  0.13199842  0.45595421     0.05320
C548        C  0.91738761  0.08457247  0.46042750    -0.03230
Br549      Br  0.97124478  0.05911699  0.43631879    -0.02920
H550        H  0.90453304  0.02059910  0.49024415     0.09240
H551        H  0.85562399  0.18643001  0.47162559     0.07250
Br552      Br  0.78732557  0.14902918  0.52283761    -0.03350
C553        C  0.62018980  0.09768853  0.55122799    -0.09990
C554        C  0.63849133  0.05291325  0.54331364     0.06210
C555        C  0.62118076  0.02885826  0.51312351    -0.03750
C556        C  0.58821714  0.05043751  0.49055029    -0.08200
C557        C  0.57259376  0.09701383  0.49643626     0.05320
C558        C  0.58813635  0.12016255  0.52790342    -0.03230
Br559      Br  0.57016896  0.18342795  0.53915369    -0.02920
H560        H  0.63279840  0.11632209  0.57466890     0.09240
H561        H  0.57652015  0.03107005  0.46711095     0.07250
Br562      Br  0.64175989  0.96641659  0.50128658    -0.03350
C563        C  0.56667060  0.38429901  0.01174371    -0.09990
C564        C  0.58380899  0.34737818  0.99035229     0.06210
C565        C  0.63010517  0.33088981  0.99594318    -0.03750
C566        C  0.65971769  0.35336621  0.02024483    -0.08200
C567        C  0.64376909  0.39152336  0.04045071     0.05320
C568        C  0.59641023  0.40622266  0.03713386    -0.03230
Br569      Br  0.57268423  0.45834116  0.06424694    -0.02920
H570        H  0.53127859  0.39760042  0.00743311     0.09240
H571        H  0.69581720  0.34119996  0.02318793     0.07250
Br572      Br  0.65535718  0.27823758  0.97033083    -0.03350
C573        C  0.59421081  0.09452692  0.94934388    -0.09990
C574        C  0.57660284  0.13775477  0.96235292     0.06210
C575        C  0.58129718  0.14734460  0.99964269    -0.03750
C576        C  0.60086472  0.11378848  0.02240347    -0.08200
C577        C  0.61785506  0.07083101  0.00957045     0.05320
C578        C  0.61513065  0.06138773  0.97257780    -0.03230
Br579      Br  0.63694343  0.00301491  0.95309647    -0.02920
H580        H  0.59161679  0.08627073  0.92101714     0.09240
H581        H  0.60340171  0.12179179  0.05078762     0.07250
Br582      Br  0.56350330  0.20518396  0.02300136    -0.03350
C583        C  0.77499375  0.26244469  0.86271787    -0.09990
C584        C  0.78741059  0.22007561  0.88032922     0.06210
C585        C  0.75343433  0.19549522  0.90032542    -0.03750
C586        C  0.70793400  0.21295258  0.90155467    -0.08200
C587        C  0.69502283  0.25339812  0.88188684     0.05320
C588        C  0.72924816  0.27927692  0.86333254    -0.03230
Br589      Br  0.71569607  0.33478965  0.83560997    -0.02920
H590        H  0.80064722  0.28213828  0.84711686     0.09240
H591        H  0.68160704  0.19306179  0.91641056     0.07250
Br592      Br  0.76523427  0.13749255  0.92526801    -0.03350
C593        C  0.76243903  0.25790132  0.65257500    -0.09990
C594        C  0.71774874  0.27130101  0.63932397     0.06210
C595        C  0.68819784  0.23787705  0.62353153    -0.03750
C596        C  0.70546024  0.19282146  0.61819934    -0.08200
C597        C  0.75141246  0.17986769  0.62952297     0.05320
C598        C  0.77989535  0.21301406  0.64719691    -0.03230
Br599      Br  0.84245582  0.20062236  0.66464112    -0.02920
H600        H  0.78519988  0.28347207  0.66564289     0.09240
H601        H  0.68240148  0.16766461  0.60519040     0.07250
Br602      Br  0.62513563  0.25183411  0.60795836    -0.03350
C603        C  0.66397433  0.33128685  0.73702031    -0.09990
C604        C  0.64988027  0.37758969  0.72844154     0.06210
C605        C  0.60678809  0.39377096  0.74302343    -0.03750
C606        C  0.57937001  0.36443732  0.76511429    -0.08200
C607        C  0.59334174  0.31825119  0.77420042     0.05320
C608        C  0.63649215  0.30182081  0.75952191    -0.03230
Br609      Br  0.66110534  0.24034083  0.76975780    -0.02920
H610        H  0.69609003  0.31733622  0.72540264     0.09240
H611        H  0.54709299  0.37877493  0.77617815     0.07250
Br612      Br  0.58374538  0.45659881  0.73519225    -0.03350
C613        C  0.87697324  0.31819456  0.51779713    -0.09990
C614        C  0.90848550  0.34776693  0.49921814     0.06210
C615        C  0.90751398  0.39663010  0.50639530    -0.03750
C616        C  0.87422784  0.41512664  0.53044426    -0.08200
C617        C  0.84098684  0.38579116  0.54729968     0.05320
C618        C  0.84306831  0.33683156  0.54124223    -0.03230
Br619      Br  0.79782096  0.29433228  0.56181550    -0.02920
H620        H  0.87613620  0.28083959  0.51188140     0.09240
H621        H  0.87313580  0.45279682  0.53494363     0.07250
Br622      Br  0.94997347  0.43974850  0.48307475    -0.03350
C623        C  0.62017073  0.32463627  0.46334372    -0.09990
C624        C  0.57084826  0.32253534  0.46026102     0.06210
C625        C  0.54307891  0.34952261  0.48389628    -0.03750
C626        C  0.56497766  0.37686885  0.51055538    -0.08200
C627        C  0.61448180  0.37863844  0.51353181     0.05320
C628        C  0.64210655  0.35310932  0.48901230    -0.03230
Br629      Br  0.70980323  0.35173736  0.49181677    -0.02920
H630        H  0.64180417  0.30140698  0.44751241     0.09240
H631        H  0.54330879  0.39604243  0.52948713     0.07250
Br632      Br  0.47530002  0.34918496  0.48121725    -0.03350
C633        C  0.10148169  0.10217067  0.86652024    -0.09990
C634        C  0.06109841  0.07853540  0.87961806     0.06210
C635        C  0.06058893  0.02894066  0.88019935    -0.03750
C636        C  0.10087504  0.00431808  0.86958851    -0.08200
C637        C  0.14217846  0.02819418  0.85904541     0.05320
C638        C  0.14192345  0.07736609  0.85655271    -0.03230
Br639      Br  0.19665768  0.11170146  0.84112579    -0.02920
H640        H  0.10208642  0.14027799  0.86492975     0.09240
H641        H  0.10120668  0.96636664  0.87252392     0.07250
Br642      Br  0.00894376  0.99301018  0.89964060    -0.03350
C643        C  0.41733833  0.05590007  0.86046150    -0.09990
C644        C  0.37273381  0.05851660  0.87704643     0.06210
C645        C  0.35441338  0.10396080  0.88510295    -0.03750
C646        C  0.38136771  0.14417104  0.87810979    -0.08200
C647        C  0.42679776  0.14113086  0.86366200     0.05320
C648        C  0.44445292  0.09649675  0.85402774    -0.03230
Br649      Br  0.50750956  0.08806877  0.83621872    -0.02920
H650        H  0.43217421  0.02197148  0.85363846     0.09240
H651        H  0.36786649  0.17822222  0.88622287     0.07250
Br652      Br  0.29468540  0.11593167  0.90803726    -0.03350
C653        C  0.11297316  0.84952575  0.94336600    -0.09990
C654        C  0.13986431  0.88911041  0.95354621     0.06210
C655        C  0.13313406  0.90829935  0.98797694    -0.03750
C656        C  0.10172090  0.88701234  0.01176069    -0.08200
C657        C  0.07630143  0.84598979  0.00261628     0.05320
C658        C  0.08162461  0.82765433  0.96758261    -0.03230
Br659      Br  0.04755803  0.77332410  0.95104129    -0.02920
H660        H  0.11760455  0.83449529  0.91688353     0.09240
H661        H  0.09841503  0.90232949  0.03825969     0.07250
Br662      Br  0.16511165  0.96416741  0.00439293    -0.03350
C663        C  0.37132097  0.89751948  0.01101876    -0.09990
C664        C  0.35079031  0.87446199  0.98141255     0.06210
C665        C  0.34552840  0.82497064  0.98241507    -0.03750
C666        C  0.36357693  0.79948197  0.01115930    -0.08200
C667        C  0.38660364  0.82202182  0.03956865     0.05320
C668        C  0.38946429  0.87148115  0.04005942    -0.03230
Br669      Br  0.42028990  0.90424945  0.07838146    -0.02920
H670        H  0.37496067  0.93550480  0.01090011     0.09240
H671        H  0.36053306  0.76138623  0.01097516     0.07250
Br672      Br  0.31308548  0.78949948  0.94596041    -0.03350
C673        C  0.61481556  0.84005975  0.61721888    -0.09990
C674        C  0.57126847  0.86378606  0.62122028     0.06210
C675        C  0.57209246  0.91008885  0.63529336    -0.03750
C676        C  0.61556929  0.93202529  0.64259416    -0.08200
C677        C  0.65857333  0.90920864  0.63569162     0.05320
C678        C  0.65789196  0.86241903  0.62391624    -0.03230
Br679      Br  0.71524270  0.82851326  0.61491325    -0.02920
H680        H  0.61586178  0.80405557  0.60772036     0.09240
H681        H  0.61579035  0.96862376  0.65081490     0.07250
Br682      Br  0.51639296  0.94729280  0.64268816    -0.03350
C683        C  0.60047963  0.64335892  0.62241662    -0.09990
C684        C  0.55493231  0.63991421  0.63665157     0.06210
C685        C  0.53592329  0.59498056  0.64406960    -0.03750
C686        C  0.56149592  0.55461603  0.63513646    -0.08200
C687        C  0.60613340  0.55776529  0.61860146     0.05320
C688        C  0.62628075  0.60323562  0.61354421    -0.03230
Br689      Br  0.68781862  0.61518962  0.59372987    -0.02920
H690        H  0.61502271  0.67778572  0.61614603     0.09240
H691        H  0.54540023  0.52056337  0.64009059     0.07250
Br692      Br  0.47294882  0.58614543  0.66218424    -0.03350
C693        C  0.33994476  0.80349549  0.73088604    -0.09990
C694        C  0.38896992  0.81189991  0.72808625     0.06210
C695        C  0.40785572  0.85035654  0.74731624    -0.03750
C696        C  0.37835491  0.87975017  0.76763030    -0.08200
C697        C  0.32899189  0.87229269  0.77013008     0.05320
C698        C  0.31016625  0.83295683  0.75141223    -0.03230
Br699      Br  0.24421263  0.81756730  0.75192484    -0.02920
H700        H  0.32421213  0.77490339  0.71577389     0.09240
H701        H  0.39482935  0.90840195  0.78221963     0.07250
Br702      Br  0.47448305  0.86360866  0.74776842    -0.03350
C703        C  0.34052419  0.83151390  0.51256349    -0.09990
C704        C  0.38879524  0.84266413  0.51423546     0.06210
C705        C  0.40894383  0.87078164  0.48697090    -0.03750
C706        C  0.38026451  0.88793485  0.45902152    -0.08200
C707        C  0.33172414  0.87739435  0.45803343     0.05320
C708        C  0.31205077  0.84875843  0.48504826    -0.03230
Br709      Br  0.24580072  0.83407736  0.48680361    -0.02920
H710        H  0.32454326  0.80992814  0.53334486     0.09240
H711        H  0.39544593  0.91121866  0.43907953     0.07250
Br712      Br  0.47376798  0.89061265  0.48880832    -0.03350
C713        C  0.35312539  0.63523059  0.53883149    -0.09990
C714        C  0.40154565  0.63014845  0.54592427     0.06210
C715        C  0.42566027  0.59087013  0.53245295    -0.03750
C716        C  0.40175429  0.55847918  0.51064484    -0.08200
C717        C  0.35352899  0.56417734  0.50235517     0.05320
C718        C  0.32890604  0.60256629  0.51738483    -0.03230
Br719      Br  0.26374893  0.61521366  0.50651596    -0.02920
H720        H  0.33432387  0.66539274  0.54934958     0.09240
H721        H  0.42141510  0.52969351  0.49888783     0.07250
Br722      Br  0.49188601  0.58202789  0.54129710    -0.03350
C723        C  0.03498344  0.34796761  0.85370019    -0.09990
C724        C  0.05897419  0.30545419  0.85988409     0.06210
C725        C  0.10609711  0.30707799  0.87148870    -0.03750
C726        C  0.12773740  0.35043942  0.87831310    -0.08200
C727        C  0.10309887  0.39335531  0.87447896     0.05320
C728        C  0.05618667  0.39164521  0.86120915    -0.03230
Br729      Br  0.01690666  0.44630676  0.85619223    -0.02920
H730        H  0.99801298  0.34711024  0.84605077     0.09240
H731        H  0.16387659  0.35019814  0.88779492     0.07250
Br732      Br  0.14141347  0.25057356  0.88012619    -0.03350
C733        C  0.36942839  0.43838897  0.85880652    -0.09990
C734        C  0.32586280  0.41494800  0.86043085     0.06210
C735        C  0.32424095  0.36681425  0.86831703    -0.03750
C736        C  0.36594474  0.34312537  0.87623925    -0.08200
C737        C  0.40960053  0.36721048  0.87760252     0.05320
C738        C  0.41118725  0.41539908  0.86790164    -0.03230
Br739      Br  0.46710494  0.45404462  0.87022537    -0.02920
H740        H  0.37048936  0.47601286  0.85379999     0.09240
H741        H  0.36376369  0.30591008  0.88250882     0.07250
Br742      Br  0.26566430  0.33281056  0.87014369    -0.03350
C743        C  0.19355417  0.71139854  0.84736153    -0.09990
C744        C  0.22851433  0.67754842  0.85128883     0.06210
C745        C  0.27695330  0.69106324  0.84823407    -0.03750
C746        C  0.28921132  0.73840839  0.84882354    -0.08200
C747        C  0.25405532  0.77232691  0.85012840     0.05320
C748        C  0.20591608  0.75864706  0.84557423    -0.03230
Br749      Br  0.15471967  0.80182654  0.83681143    -0.02920
H750        H  0.15657499  0.70134074  0.84684381     0.09240
H751        H  0.32615607  0.74854740  0.84971395     0.07250
Br752      Br  0.32881660  0.64780817  0.84276209    -0.03350
C753        C  0.12251097  0.56423793  0.01278697    -0.09990
C754        C  0.11027112  0.57498034  0.97698975     0.06210
C755        C  0.07739698  0.61163331  0.97064483    -0.03750
C756        C  0.06060924  0.63803101  0.99911828    -0.08200
C757        C  0.07458654  0.62919000  0.03463497     0.05320
C758        C  0.10466463  0.59068730  0.04156311    -0.03230
Br759      Br  0.12086309  0.57121305  0.08935368    -0.02920
H760        H  0.14675428  0.53574446  0.01848147     0.09240
H761        H  0.03702675  0.66692151  0.99293918     0.07250
Br762      Br  0.05275031  0.62957527  0.92430518    -0.03350
C763        C  0.35296089  0.63190894  0.99537197    -0.09990
C764        C  0.39912318  0.61460637  0.99908434     0.06210
C765        C  0.41264483  0.57501466  0.97883216    -0.03750
C766        C  0.37998136  0.55310115  0.95570414    -0.08200
C767        C  0.33301084  0.56888957  0.95354805     0.05320
C768        C  0.31985846  0.60915564  0.97332193    -0.03230
Br769      Br  0.25714362  0.63479016  0.97114441    -0.02920
H770        H  0.34183805  0.66196003  0.01111276     0.09240
H771        H  0.39078041  0.52250329  0.94046287     0.07250
Br772      Br  0.47512590  0.54951171  0.98243145    -0.03350
C773        C  0.96218004  0.86750288  0.63177047    -0.09990
C774        C  0.93880811  0.82507364  0.63964951     0.06210
C775        C  0.88936210  0.82347805  0.63885176    -0.03750
C776        C  0.86402324  0.86318846  0.62812891    -0.08200
C777        C  0.88735189  0.90487733  0.61742092     0.05320
C778        C  0.93712144  0.90721336  0.62042353    -0.03230
Br779      Br  0.97383220  0.96085551  0.60554629    -0.02920
H780        H  0.00048006  0.86849580  0.63120565     0.09240
H781        H  0.82580865  0.86093272  0.62732794     0.07250
Br782      Br  0.85548445  0.76695168  0.65051684    -0.03350
C783        C  0.90952557  0.55431232  0.64215887    -0.09990
C784        C  0.90623997  0.59670080  0.62263450     0.06210
C785        C  0.86076120  0.61240193  0.61183609    -0.03750
C786        C  0.82109222  0.58483827  0.61912175    -0.08200
C787        C  0.82494907  0.54127492  0.63636291     0.05320
C788        C  0.86956316  0.52646066  0.64878046    -0.03230
Br789      Br  0.87926859  0.46586955  0.67052640    -0.02920
H790        H  0.94361405  0.54160959  0.65113780     0.09240
H791        H  0.78716560  0.59594054  0.60878241     0.07250
Br792      Br  0.84864821  0.66827991  0.58401343    -0.03350
C793        C  0.25599981  0.76649398  0.65298587    -0.09990
C794        C  0.28967303  0.73353797  0.64275052     0.06210
C795        C  0.27654590  0.68488884  0.64057498    -0.03750
C796        C  0.22920682  0.67238355  0.64113437    -0.08200
C797        C  0.19531252  0.70672896  0.64622962     0.05320
C798        C  0.20907399  0.75295587  0.65615352    -0.03230
Br799      Br  0.16558192  0.79904664  0.67428848    -0.02920
H800        H  0.26587297  0.80282376  0.65788087     0.09240
H801        H  0.21883826  0.63626655  0.63584515     0.07250
Br802      Br  0.31946300  0.63240148  0.63697839    -0.03350
C803        C  0.08673452  0.58941285  0.72963189    -0.09990
C804        C  0.09548639  0.63835303  0.72693542     0.06210
C805        C  0.13534420  0.65615474  0.74574078    -0.03750
C806        C  0.16519802  0.62561439  0.76528922    -0.08200
C807        C  0.15595732  0.57693515  0.76795186     0.05320
C808        C  0.11585976  0.55923268  0.74971741    -0.03230
Br809      Br  0.09912308  0.49357891  0.75060104    -0.02920
H810        H  0.05709866  0.57383103  0.71550205     0.09240
H811        H  0.19453710  0.64061539  0.78011832     0.07250
Br812      Br  0.14993279  0.72183223  0.74818063    -0.03350
C813        C  0.09385534  0.55633474  0.51923238    -0.09990
C814        C  0.07658371  0.60223094  0.51566341     0.06210
C815        C  0.08240919  0.62571544  0.48256322    -0.03750
C816        C  0.11032515  0.60544144  0.45552573    -0.08200
C817        C  0.13216900  0.56146189  0.46072368     0.05320
C818        C  0.12022682  0.53536532  0.49199899    -0.03230
Br819      Br  0.13775547  0.47068780  0.49980335    -0.02920
H820        H  0.08760459  0.53687143  0.54385972     0.09240
H821        H  0.11654105  0.62516415  0.43109321     0.07250
Br822      Br  0.05631137  0.68697026  0.47417389    -0.03350
C823        C  0.13406685  0.88841520  0.52390265    -0.09990
C824        C  0.11634190  0.88876272  0.48872347     0.06210
C825        C  0.07835396  0.85779586  0.48026329    -0.03750
C826        C  0.06039877  0.82713358  0.50628198    -0.08200
C827        C  0.07859570  0.82604635  0.54128704     0.05320
C828        C  0.11540100  0.85794906  0.55009579    -0.03230
Br829      Br  0.14414634  0.86047167  0.59640162    -0.02920
H830        H  0.16311514  0.91156120  0.53101541     0.09240
H831        H  0.03199970  0.80338250  0.49880004     0.07250
Br832      Br  0.05002703  0.85218664  0.43342428    -0.03350
loop_ 
_geom_bond_atom_site_label_1 
_geom_bond_atom_site_label_2 
_geom_bond_distance 
_geom_bond_site_symmetry_2 
_ccdc_geom_bond_type 
Fe1          O17   2.037       .  S
Fe1           O7   2.078       .  S
Fe1          O14   2.091   1_655  S
Fe1           O6   2.057   1_655  S
Fe1          O12   1.915   1_655  S
Fe2           O5   2.031       .  S
Fe2           O9   2.093   1_455  S
Fe2          O13   2.048       .  S
Fe2          O18   2.120       .  S
Fe2          O12   1.937       .  S
Fe3          O21   2.159       .  S
Fe3           O8   1.980       .  S
Fe3          O15   2.049   1_455  S
Fe3           O4   2.107       .  S
Fe3          O12   1.939       .  S
O4           C11   1.274       .  A
O5           C19   1.258       .  A
O6           C11   1.270       .  A
O7           C10   1.276       .  A
O8           C20   1.251       .  A
O9           C22   1.278       .  A
C10          O15   1.275       .  A
C10         C774   1.461       .  S
C11         C827   1.494       .  S
O13          C16   1.268       .  A
O14          C16   1.273       .  A
C16         C814   1.482       .  S
O17          C22   1.265       .  A
O18          C20   1.280       .  A
C19          O21   1.281       .  A
C19         C804   1.517       .  S
C20         C797   1.450       .  S
C22         C784   1.487       .  S
Fe23         O39   2.043       .  S
Fe23         O29   2.088       .  S
Fe23         O36   2.093       .  S
Fe23         O28   2.068       .  S
Fe23         O34   1.918       .  S
Fe24         O27   2.026       .  S
Fe24         O31   2.105       .  S
Fe24         O35   2.027       .  S
Fe24         O40   2.140       .  S
Fe24         O34   1.919       .  S
Fe25         O43   2.151       .  S
Fe25         O30   1.977       .  S
Fe25         O37   2.031       .  S
Fe25         O26   2.105       .  S
Fe25         O34   1.930       .  S
O26          C33   1.272       .  A
O27          C41   1.254       .  A
O28          C33   1.268       .  A
O29          C32   1.281       .  A
O30          C42   1.250       .  A
O31          C44   1.280       .  A
C32          O37   1.272       .  A
C32         C734   1.452       .  S
C33         C767   1.485       .  S
O35          C38   1.261       .  A
O36          C38   1.274       .  A
C38         C754   1.486       .  S
O39          C44   1.271       .  A
O40          C42   1.287       .  A
C41          O43   1.278       .  A
C41         C807   1.502       .  S
C42         C744   1.462       .  S
C44         C727   1.496       .  S
Fe45         O61   2.033       .  S
Fe45         O51   2.089       .  S
Fe45         O58   2.092       .  S
Fe45         O50   2.065       .  S
Fe45         O56   1.917       .  S
Fe46         O49   2.031       .  S
Fe46         O53   2.110       .  S
Fe46         O57   2.044       .  S
Fe46         O62   2.137       .  S
Fe46         O56   1.928       .  S
Fe47         O65   2.154       .  S
Fe47         O52   1.972       .  S
Fe47         O59   2.044       .  S
Fe47         O48   2.091       .  S
Fe47         O56   1.926       .  S
O48          C55   1.269       .  A
O49          C63   1.257       .  A
O50          C55   1.267       .  A
O51          C54   1.281       .  A
O52          C64   1.243       .  A
O53          C66   1.282       .  A
C54          O59   1.276       .  A
C54         C684   1.468       .  S
C55         C714   1.470       .  S
O57          C60   1.265       .  A
O58          C60   1.271       .  A
C60         C704   1.476       .  S
O61          C66   1.271       .  A
O62          C64   1.285       .  A
C63          O65   1.280       .  A
C63         C694   1.503       .  S
C64         C794   1.463       .  S
C66         C674   1.495       .  S
Fe67         O83   2.030   1_565  S
Fe67         O73   2.086   1_565  S
Fe67         O80   2.093       .  S
Fe67         O72   2.045       .  S
Fe67         O78   1.916       .  S
Fe68         O71   2.027       .  S
Fe68         O75   2.113       .  S
Fe68         O79   2.040       .  S
Fe68         O84   2.138       .  S
Fe68         O78   1.932       .  S
Fe69         O87   2.159       .  S
Fe69         O74   1.977       .  S
Fe69         O81   2.046       .  S
Fe69         O70   2.102       .  S
Fe69         O78   1.931       .  S
O70          C77   1.273       .  A
O71          C85   1.258       .  A
O72          C77   1.265       .  A
O73          C76   1.278       .  A
O74          C86   1.247       .  A
O75          C88   1.283   1_565  A
C76          O81   1.275   1_545  A
C76         C637   1.462       .  S
C77         C654   1.481       .  S
O79          C82   1.265       .  A
O80          C82   1.272       .  A
C82         C664   1.477       .  S
O83          C88   1.264       .  A
O84          C86   1.283       .  A
C85          O87   1.282       .  A
C85         C697   1.517       .  S
C86         C747   1.460       .  S
C88         C644   1.495       .  S
Fe89        O105   2.052       .  S
Fe89         O95   2.078       .  S
Fe89        O102   2.087       .  S
Fe89         O94   2.065       .  S
Fe89        O100   1.928       .  S
Fe90         O93   2.028       .  S
Fe90         O97   2.083       .  S
Fe90        O101   2.051       .  S
Fe90        O106   2.110       .  S
Fe90        O100   1.941       .  S
Fe91        O109   2.135       .  S
Fe91         O96   1.966       .  S
Fe91        O103   2.049       .  S
Fe91         O92   2.108       .  S
Fe91        O100   1.951       .  S
O92          C99   1.274       .  A
O93         C107   1.254       .  A
O94          C99   1.269       .  A
O95          C98   1.277       .  A
O96         C108   1.259       .  A
O97         C110   1.277       .  A
C98         O103   1.273       .  A
C98         C787   1.469       .  S
C99         C617   1.482       .  S
O101        C104   1.265       .  A
O102        C104   1.271       .  A
C104        C627   1.475       .  S
O105        C110   1.269       .  A
O106        C108   1.282       .  A
C107        O109   1.275       .  A
C107        C604   1.503       .  S
C108        C594   1.452       .  S
C110        C687   1.492       .  S
Fe111       O127   2.034       .  S
Fe111       O117   2.080       .  S
Fe111       O124   2.099       .  S
Fe111       O116   2.031       .  S
Fe111       O122   1.930       .  S
Fe112       O115   2.027       .  S
Fe112       O119   2.072       .  S
Fe112       O123   2.029       .  S
Fe112       O128   2.087       .  S
Fe112       O122   1.932       .  S
Fe113       O131   2.144       .  S
Fe113       O118   1.968       .  S
Fe113       O125   2.053       .  S
Fe113       O114   2.115       .  S
Fe113       O122   1.954       .  S
O114        C121   1.279       .  A
O115        C129   1.257       .  A
O116        C121   1.263       .  A
O117        C120   1.276       .  A
O118        C130   1.258       .  A
O119        C132   1.273       .  A
C120        O125   1.273       .  A
C120        C647   1.474       .  S
C121        C574   1.494       .  S
O123        C126   1.260       .  A
O124        C126   1.270       .  A
C126        C564   1.471       .  S
O127        C132   1.269       .  A
O128        C130   1.276       .  A
C129        O131   1.279       .  A
C129        C607   1.510       .  S
C130        C587   1.448       .  S
C132        C737   1.476       .  S
Fe133       O149   2.046       .  S
Fe133       O139   2.080       .  S
Fe133       O146   2.106   1_565  S
Fe133       O138   2.061   1_565  S
Fe133       O144   1.930   1_565  S
Fe134       O137   2.014       .  S
Fe134       O141   2.085   1_545  S
Fe134       O145   2.016       .  S
Fe134       O150   2.110       .  S
Fe134       O144   1.930       .  S
Fe135       O153   2.144       .  S
Fe135       O140   1.971       .  S
Fe135       O147   2.048   1_545  S
Fe135       O136   2.106       .  S
Fe135       O144   1.944       .  S
O136        C143   1.278       .  A
O137        C151   1.250       .  A
O138        C143   1.274       .  A
O139        C142   1.275       .  A
O140        C152   1.256       .  A
O141        C154   1.276       .  A
C142        O147   1.272       .  A
C142        C677   1.468       .  S
C143        C554   1.483       .  S
O145        C148   1.259       .  A
O146        C148   1.273       .  A
C148        C544   1.467       .  S
O149        C154   1.271       .  A
O150        C152   1.280       .  A
C151        O153   1.280       .  A
C151        C537   1.497       .  S
C152        C597   1.462       .  S
C154        C777   1.483       .  S
Fe155       O171   2.047   1_655  S
Fe155       O161   2.075   1_655  S
Fe155       O168   2.105       .  S
Fe155       O160   2.055       .  S
Fe155       O166   1.954       .  S
Fe156       O159   2.025       .  S
Fe156       O163   2.092       .  S
Fe156       O167   2.010       .  S
Fe156       O172   2.082       .  S
Fe156       O166   1.941       .  S
Fe157       O175   2.138       .  S
Fe157       O162   1.967       .  S
Fe157       O169   2.051   1_655  S
Fe157       O158   2.106       .  S
Fe157       O166   1.960       .  S
O158        C165   1.278       .  A
O159        C173   1.256       .  A
O160        C165   1.273       .  A
O161        C164   1.272       .  A
O162        C174   1.255       .  A
O163        C176   1.281   1_655  A
C164        O169   1.271       .  A
C164        C724   1.472       .  S
C165        C517   1.480       .  S
O167        C170   1.252       .  A
O168        C170   1.267       .  A
C170        C524   1.476       .  S
O171        C176   1.275       .  A
O172        C174   1.277       .  A
C173        O175   1.281       .  A
C173        C534   1.496       .  S
C174        C584   1.456       .  S
C176        C634   1.476       .  S
Fe177       O193   2.097       .  S
Fe177       O183   2.036       .  S
Fe177       O190   2.071       .  S
Fe177       O182   2.066       .  S
Fe177       O188   1.950       .  S
Fe178       O181   2.079       .  S
Fe178       O185   2.015       .  S
Fe178       O189   2.094       .  S
Fe178       O194   1.995       .  S
Fe178       O188   1.945       .  S
Fe179       O197   2.028       .  S
Fe179       O184   2.144       .  S
Fe179       O191   2.106       .  S
Fe179       O180   2.083       .  S
Fe179       O188   1.983       .  S
O180        C187   1.276       .  A
O181        C195   1.282       .  A
O182        C187   1.269       .  A
O183        C186   1.268       .  A
O184        C196   1.282       .  A
O185        C198   1.250       .  A
C186        O191   1.277       .  A
C186        C567   1.469       .  S
C187        C487   1.502       .  S
O189        C192   1.284       .  A
O190        C192   1.282       .  A
C192        C477   1.476       .  S
O193        C198   1.263       .  A
O194        C196   1.250       .  A
C195        O197   1.266       .  A
C195        C494   1.467       .  S
C196        C504   1.507       .  S
C198        C514   1.490   1_554  S
Fe199       O215   2.093       .  S
Fe199       O205   2.036       .  S
Fe199       O212   2.088   1_655  S
Fe199       O204   2.083   1_655  S
Fe199       O210   1.947       .  S
Fe200       O203   2.087       .  S
Fe200       O207   2.037       .  S
Fe200       O211   2.088       .  S
Fe200       O216   2.018       .  S
Fe200       O210   1.953       .  S
Fe201       O219   2.037       .  S
Fe201       O206   2.126       .  S
Fe201       O213   2.094       .  S
Fe201       O202   2.071       .  S
Fe201       O210   1.965       .  S
O202        C209   1.275   1_655  A
O203        C217   1.285       .  A
O204        C209   1.274       .  A
O205        C208   1.264       .  A
O206        C218   1.278       .  A
O207        C220   1.250       .  A
C208        O213   1.274       .  A
C208        C547   1.466       .  S
C209        C444   1.491       .  S
O211        C214   1.285   1_655  A
O212        C214   1.285       .  A
C214        C457   1.494       .  S
O215        C220   1.262       .  A
O216        C218   1.251       .  A
C217        O219   1.269       .  A
C217        C464   1.467       .  S
C218        C507   1.489       .  S
C220        C614   1.485       .  S
Fe221       O237   2.087   1_565  S
Fe221       O227   2.053   1_565  S
Fe221       O234   2.112       .  S
Fe221       O226   2.047       .  S
Fe221       O232   1.930   1_565  S
Fe222       O225   2.087       .  S
Fe222       O229   2.040       .  S
Fe222       O233   2.080   1_545  S
Fe222       O238   2.012       .  S
Fe222       O232   1.939       .  S
Fe223       O241   2.046       .  S
Fe223       O228   2.128       .  S
Fe223       O235   2.088       .  S
Fe223       O224   2.088   1_545  S
Fe223       O232   1.955       .  S
O224        C231   1.279       .  A
O225        C239   1.288       .  A
O226        C231   1.268       .  A
O227        C230   1.268       .  A
O228        C240   1.282       .  A
O229        C242   1.248       .  A
C230        O235   1.272       .  A
C230        C527   1.474       .  S
C231        C414   1.501       .  S
O233        C236   1.286       .  A
O234        C236   1.289       .  A
C236        C424   1.498       .  S
O237        C242   1.255       .  A
O238        C240   1.250       .  A
C239        O241   1.272       .  A
C239        C497   1.467       .  S
C240        C437   1.490       .  S
C242        C577   1.478       .  S
Fe243       O259   2.109       .  S
Fe243       O249   2.047       .  S
Fe243       O256   2.108       .  S
Fe243       O248   2.073       .  S
Fe243       O254   1.934       .  S
Fe244       O247   2.089       .  S
Fe244       O251   2.023       .  S
Fe244       O255   2.069       .  S
Fe244       O260   2.000       .  S
Fe244       O254   1.933       .  S
Fe245       O263   2.036       .  S
Fe245       O250   2.148       .  S
Fe245       O257   2.105       .  S
Fe245       O246   2.081       .  S
Fe245       O254   1.944       .  S
O246        C253   1.277       .  A
O247        C261   1.287       .  A
O248        C253   1.273       .  A
O249        C252   1.269       .  A
O250        C262   1.286       .  A
O251        C264   1.244       .  A
C252        O257   1.280       .  A
C252        C624   1.478       .  S
C253        C404   1.500       .  S
O255        C258   1.285       .  A
O256        C258   1.290       .  A
C258        C394   1.480       .  S
O259        C264   1.262       .  A
O260        C262   1.250       .  A
C261        O263   1.266       .  A
C261        C467   1.467       .  S
C262        C434   1.506       .  S
C264        C557   1.498       .  S
Fe265       O281   2.092       .  S
Fe265       O271   2.040       .  S
Fe265       O278   2.095       .  S
Fe265       O270   2.069       .  S
Fe265       O276   1.927       .  S
Fe266       O269   2.099       .  S
Fe266       O273   2.058       .  S
Fe266       O277   2.096       .  S
Fe266       O282   2.053       .  S
Fe266       O276   1.953       .  S
Fe267       O285   2.054       .  S
Fe267       O272   2.102       .  S
Fe267       O279   2.080       .  S
Fe267       O268   2.083       .  S
Fe267       O276   1.952       .  S
O268        C275   1.276       .  A
O269        C283   1.283       .  A
O270        C275   1.277       .  A
O271        C274   1.264       .  A
O272        C284   1.278       .  A
O273        C286   1.252       .  A
C274        O279   1.270       .  A
C274        C667   1.466       .  S
C275        C427   1.494       .  S
O277        C280   1.287       .  A
O278        C280   1.286       .  A
C280        C484   1.509       .  S
O281        C286   1.260       .  A
O282        C284   1.261       .  A
C283        O285   1.272       .  A
C283        C374   1.475       .  S
C284        C384   1.496       .  S
C286        C764   1.481   1_554  S
Fe287       O303   2.091       .  S
Fe287       O293   2.037       .  S
Fe287       O300   2.095       .  S
Fe287       O292   2.070       .  S
Fe287       O298   1.931       .  S
Fe288       O291   2.105       .  S
Fe288       O295   2.044       .  S
Fe288       O299   2.087       .  S
Fe288       O304   2.026       .  S
Fe288       O298   1.946       .  S
Fe289       O307   2.044       .  S
Fe289       O294   2.123       .  S
Fe289       O301   2.104       .  S
Fe289       O290   2.077       .  S
Fe289       O298   1.951       .  S
O290        C297   1.278       .  A
O291        C305   1.285       .  A
O292        C297   1.276       .  A
O293        C296   1.263       .  A
O294        C306   1.281       .  A
O295        C308   1.250       .  A
C296        O301   1.276       .  A
C296        C817   1.495       .  S
C297        C454   1.487       .  S
O299        C302   1.283       .  A
O300        C302   1.284       .  A
C302        C407   1.504       .  S
O303        C308   1.260       .  A
O304        C306   1.253       .  A
C305        O307   1.272       .  A
C305        C364   1.474       .  S
C306        C387   1.507       .  S
C308        C717   1.480       .  S
Fe309       O325   2.097   1_655  S
Fe309       O315   2.034   1_655  S
Fe309       O322   2.073       .  S
Fe309       O314   2.055       .  S
Fe309       O320   1.919   1_655  S
Fe310       O313   2.098       .  S
Fe310       O317   2.048       .  S
Fe310       O321   2.096   1_455  S
Fe310       O326   2.041       .  S
Fe310       O320   1.939       .  S
Fe311       O329   2.051       .  S
Fe311       O316   2.103       .  S
Fe311       O323   2.078       .  S
Fe311       O312   2.092       .  S
Fe311       O320   1.943       .  S
O312        C319   1.278   1_455  A
O313        C327   1.282       .  A
O314        C319   1.274       .  A
O315        C318   1.265       .  A
O316        C328   1.279       .  A
O317        C330   1.254       .  A
C318        O323   1.270       .  A
C318        C757   1.482       .  S
C319        C474   1.478       .  S
O321        C324   1.283       .  A
O322        C324   1.281       .  A
C324        C417   1.503       .  S
O325        C330   1.262       .  A
O326        C328   1.260       .  A
C327        O329   1.271       .  A
C327        C377   1.473       .  S
C328        C357   1.476       .  S
C330        C657   1.492       .  S
Fe331       O347   2.107       .  S
Fe331       O337   2.050       .  S
Fe331       O344   2.112   1_565  S
Fe331       O336   2.080   1_565  S
Fe331       O342   1.937       .  S
Fe332       O335   2.112       .  S
Fe332       O339   2.032       .  S
Fe332       O343   2.086       .  S
Fe332       O348   2.034       .  S
Fe332       O342   1.940       .  S
Fe333       O351   2.043       .  S
Fe333       O338   2.107       .  S
Fe333       O345   2.088       .  S
Fe333       O334   2.061       .  S
Fe333       O342   1.950       .  S
O334        C341   1.272       .  A
O335        C349   1.285       .  A
O336        C341   1.278   1_545  A
O337        C340   1.266       .  A
O338        C350   1.279       .  A
O339        C352   1.243       .  A
C340        O345   1.273       .  A
C340        C707   1.471       .  S
C341        C397   1.479   1_565  S
O343        C346   1.287   1_565  A
O344        C346   1.289       .  A
C346        C447   1.502       .  S
O347        C352   1.262       .  A
O348        C350   1.259       .  A
C349        O351   1.267       .  A
C349        C367   1.478       .  S
C350        C354   1.485       .  S
C352        C824   1.492       .  S
C353        C354   1.403       .  A
C353        C358   1.408       .  A
C353        H360   1.083       .  S
C354        C355   1.416       .  A
C355        C356   1.399       .  A
C355       Br362   1.916       .  S
C356        C357   1.398       .  A
C356        H361   1.084       .  S
C357        C358   1.415       .  A
C358       Br359   1.917       .  S
C363        C364   1.412       .  A
C363        C368   1.399       .  A
C363        H370   1.081       .  S
C364        C365   1.399       .  A
C365        C366   1.398       .  A
C365       Br372   1.918       .  S
C366        C367   1.414       .  A
C366        H371   1.079       .  S
C367        C368   1.398       .  A
C368       Br369   1.913       .  S
C373        C374   1.412       .  A
C373        C378   1.396       .  A
C373        H380   1.074       .  S
C374        C375   1.400       .  A
C375        C376   1.399       .  A
C375       Br382   1.917       .  S
C376        C377   1.413       .  A
C376        H381   1.078       .  S
C377        C378   1.399       .  A
C378       Br379   1.918       .  S
C383        C384   1.394       .  A
C383        C388   1.404       .  A
C383        H390   1.084       .  S
C384        C385   1.424       .  A
C385        C386   1.407       .  A
C385       Br392   1.920       .  S
C386        C387   1.401       .  A
C386        H391   1.083       .  S
C387        C388   1.435       .  A
C388       Br389   1.927       .  S
C393        C394   1.398       .  A
C393        C398   1.400       .  A
C393        H400   1.084       .  S
C394        C395   1.410       .  A
C395        C396   1.401       .  A
C395       Br402   1.908       .  S
C396        C397   1.400       .  A
C396        H401   1.084       .  S
C397        C398   1.418       .  A
C398       Br399   1.920   1_545  S
C403        C404   1.413       .  A
C403        C408   1.410       .  A
C403        H410   1.083       .  S
C404        C405   1.415       .  A
C405        C406   1.398       .  A
C405       Br412   1.919       .  S
C406        C407   1.409       .  A
C406        H411   1.083       .  S
C407        C408   1.416       .  A
C408       Br409   1.920       .  S
C413        C414   1.415       .  A
C413        C418   1.416       .  A
C413        H420   1.083       .  S
C414        C415   1.422       .  A
C415        C416   1.386       .  A
C415       Br422   1.931       .  S
C416        C417   1.405       .  A
C416        H421   1.083       .  S
C417        C418   1.416       .  A
C418       Br419   1.918       .  S
C423        C424   1.407       .  A
C423        C428   1.408       .  A
C423        H430   1.083       .  S
C424        C425   1.416       .  A
C425        C426   1.399       .  A
C425       Br432   1.914       .  S
C426        C427   1.403       .  A
C426        H431   1.084       .  S
C427        C428   1.419       .  A
C428       Br429   1.921       .  S
C433        C434   1.424       .  A
C433        C438   1.403       .  A
C433        H440   1.084       .  S
C434        C435   1.406       .  A
C435        C436   1.413       .  A
C435       Br442   1.916       .  S
C436        C437   1.419       .  A
C436        H441   1.084       .  S
C437        C438   1.398       .  A
C438       Br439   1.918   1_545  S
C443        C444   1.407       .  A
C443        C448   1.406       .  A
C443        H450   1.084   1_455  S
C444        C445   1.409       .  A
C445        C446   1.405       .  A
C445       Br452   1.919       .  S
C446        C447   1.412       .  A
C446        H451   1.083       .  S
C447        C448   1.415       .  A
C448       Br449   1.918       .  S
C453        C454   1.409       .  A
C453        C458   1.403       .  A
C453        H460   1.084       .  S
C454        C455   1.409       .  A
C455        C456   1.401       .  A
C455       Br462   1.921       .  S
C456        C457   1.411       .  A
C456        H461   1.083       .  S
C457        C458   1.414       .  A
C458       Br459   1.921       .  S
C463        C464   1.392       .  A
C463        C468   1.390       .  A
C463        H470   1.084       .  S
C464        C465   1.422       .  A
C465        C466   1.389       .  A
C465       Br472   1.915       .  S
C466        C467   1.391       .  A
C466        H471   1.084       .  S
C467        C468   1.426       .  A
C468       Br469   1.927       .  S
C473        C474   1.404       .  A
C473        C478   1.390       .  A
C473        H480   1.084       .  S
C474        C475   1.409       .  A
C475        C476   1.411       .  A
C475       Br482   1.915       .  S
C476        C477   1.409       .  A
C476        H481   1.084       .  S
C477        C478   1.405       .  A
C478       Br479   1.922       .  S
C483        C484   1.409       .  A
C483        C488   1.396       .  A
C483        H490   1.083       .  S
C484        C485   1.418       .  A
C485        C486   1.415       .  A
C485       Br492   1.918       .  S
C486        C487   1.411       .  A
C486        H491   1.083       .  S
C487        C488   1.418       .  A
C488       Br489   1.927       .  S
C493        C494   1.390       .  A
C493        C498   1.384       .  A
C493        H500   1.084       .  S
C494        C495   1.422       .  A
C495        C496   1.393       .  A
C495       Br502   1.918       .  S
C496        C497   1.394       .  A
C496        H501   1.084       .  S
C497        C498   1.421       .  A
C498       Br499   1.916       .  S
C503        C504   1.419       .  A
C503        C508   1.405       .  A
C503        H510   1.084       .  S
C504        C505   1.413       .  A
C505        C506   1.415       .  A
C505       Br512   1.917       .  S
C506        C507   1.414       .  A
C506        H511   1.084       .  S
C507        C508   1.403       .  A
C508       Br509   1.918       .  S
C513        C514   1.410   1_554  A
C513        C518   1.398   1_554  A
C513        H520   1.084       .  S
C514        C515   1.413       .  A
C515        C516   1.408       .  A
C515       Br522   1.919       .  S
C516        C517   1.407       .  A
C516        H521   1.084       .  S
C517        C518   1.405       .  A
C518       Br519   1.921   1_655  S
C523        C524   1.402   1_554  A
C523        C528   1.391       .  A
C523        H530   1.084   1_554  S
C524        C525   1.410   1_556  A
C525        C526   1.411       .  A
C525       Br532   1.916       .  S
C526        C527   1.407       .  A
C526        H531   1.083       .  S
C527        C528   1.406       .  A
C528       Br529   1.922       .  S
C533        C534   1.399       .  A
C533        C538   1.411       .  A
C533        H540   1.083       .  S
C534        C535   1.423       .  A
C535        C536   1.400       .  A
C535       Br542   1.907       .  S
C536        C537   1.392       .  A
C536        H541   1.084       .  S
C537        C538   1.429       .  A
C538       Br539   1.923       .  S
C543        C544   1.406       .  A
C543        C548   1.406       .  A
C543        H550   1.083       .  S
C544        C545   1.408       .  A
C545        C546   1.389       .  A
C545       Br552   1.923       .  S
C546        C547   1.399       .  A
C546        H551   1.085       .  S
C547        C548   1.407       .  A
C548       Br549   1.914       .  S
C553        C554   1.407       .  A
C553        C558   1.409       .  A
C553        H560   1.081       .  S
C554        C555   1.404       .  A
C555        C556   1.397       .  A
C555       Br562   1.921   1_545  S
C556        C557   1.414       .  A
C556        H561   1.084       .  S
C557        C558   1.414       .  A
C558       Br559   1.916       .  S
C563        C564   1.406   1_554  A
C563        C568   1.409       .  A
C563        H570   1.083       .  S
C564        C565   1.408       .  A
C565        C566   1.387   1_556  A
C565       Br572   1.916       .  S
C566        C567   1.397       .  A
C566        H571   1.085       .  S
C567        C568   1.410       .  A
C568       Br569   1.917       .  S
C573        C574   1.413       .  A
C573        C578   1.409       .  A
C573        H580   1.084       .  S
C574        C575   1.422       .  A
C575        C576   1.390   1_556  A
C575       Br582   1.929   1_556  S
C576        C577   1.398       .  A
C576        H581   1.084       .  S
C577        C578   1.406   1_554  A
C578       Br579   1.915       .  S
C583        C584   1.414       .  A
C583        C588   1.381       .  A
C583        H590   1.084       .  S
C584        C585   1.400       .  A
C585        C586   1.382       .  A
C585       Br592   1.920       .  S
C586        C587   1.410       .  A
C586        H591   1.085       .  S
C587        C588   1.396       .  A
C588       Br589   1.922       .  S
C593        C594   1.410       .  A
C593        C598   1.384       .  A
C593        H600   1.084       .  S
C594        C595   1.393       .  A
C595        C596   1.386       .  A
C595       Br602   1.918       .  S
C596        C597   1.416       .  A
C596        H601   1.081       .  S
C597        C598   1.401       .  A
C598       Br599   1.918       .  S
C603        C604   1.411       .  A
C603        C608   1.415       .  A
C603        H610   1.084       .  S
C604        C605   1.414       .  A
C605        C606   1.403       .  A
C605       Br612   1.923       .  S
C606        C607   1.412       .  A
C606        H611   1.083       .  S
C607        C608   1.419       .  A
C608       Br609   1.919       .  S
C613        C614   1.405       .  A
C613        C618   1.404       .  A
C613        H620   1.084       .  S
C614        C615   1.414       .  A
C615        C616   1.405       .  A
C615       Br622   1.920       .  S
C616        C617   1.402       .  A
C616        H621   1.084       .  S
C617        C618   1.410       .  A
C618       Br619   1.916       .  S
C623        C624   1.401       .  A
C623        C628   1.397       .  A
C623        H630   1.078       .  S
C624        C625   1.410       .  A
C625        C626   1.404       .  A
C625       Br632   1.920       .  S
C626        C627   1.405       .  A
C626        H631   1.084       .  S
C627        C628   1.407       .  A
C628       Br629   1.918       .  S
C633        C634   1.410       .  A
C633        C638   1.397       .  A
C633        H640   1.084       .  S
C634        C635   1.408       .  A
C635        C636   1.397       .  A
C635       Br642   1.921   1_545  S
C636        C637   1.405       .  A
C636        H641   1.083   1_545  S
C637        C638   1.399       .  A
C638       Br639   1.915       .  S
C643        C644   1.408       .  A
C643        C648   1.403       .  A
C643        H650   1.083       .  S
C644        C645   1.425       .  A
C645        C646   1.395       .  A
C645       Br652   1.926       .  S
C646        C647   1.397       .  A
C646        H651   1.085       .  S
C647        C648   1.411       .  A
C648       Br649   1.920       .  S
C653        C654   1.407       .  A
C653        C658   1.408       .  A
C653        H660   1.084       .  S
C654        C655   1.408       .  A
C655        C656   1.392   1_556  A
C655       Br662   1.924   1_556  S
C656        C657   1.409       .  A
C656        H661   1.084       .  S
C657        C658   1.415   1_554  A
C658       Br659   1.918       .  S
C663        C664   1.407   1_554  A
C663        C668   1.407       .  A
C663        H670   1.083       .  S
C664        C665   1.413       .  A
C665        C666   1.389   1_556  A
C665       Br672   1.923       .  S
C666        C667   1.397       .  A
C666        H671   1.085       .  S
C667        C668   1.407       .  A
C668       Br669   1.913       .  S
C673        C674   1.415       .  A
C673        C678   1.395       .  A
C673        H680   1.083       .  S
C674        C675   1.417       .  A
C675        C676   1.403       .  A
C675       Br682   1.921       .  S
C676        C677   1.405       .  A
C676        H681   1.084       .  S
C677        C678   1.400       .  A
C678       Br679   1.920       .  S
C683        C684   1.397       .  A
C683        C688   1.396       .  A
C683        H690   1.084       .  S
C684        C685   1.410       .  A
C685        C686   1.399       .  A
C685       Br692   1.921       .  S
C686        C687   1.408       .  A
C686        H691   1.083       .  S
C687        C688   1.422       .  A
C688       Br689   1.921       .  S
C693        C694   1.410       .  A
C693        C698   1.416       .  A
C693        H700   1.083       .  S
C694        C695   1.410       .  A
C695        C696   1.405       .  A
C695       Br702   1.921       .  S
C696        C697   1.415       .  A
C696        H701   1.083       .  S
C697        C698   1.420       .  A
C698       Br699   1.915       .  S
C703        C704   1.402       .  A
C703        C708   1.392       .  A
C703        H710   1.085       .  S
C704        C705   1.410       .  A
C705        C706   1.406       .  A
C705       Br712   1.918       .  S
C706        C707   1.405       .  A
C706        H711   1.082       .  S
C707        C708   1.407       .  A
C708       Br709   1.920       .  S
C713        C714   1.403       .  A
C713        C718   1.402       .  A
C713        H720   1.084       .  S
C714        C715   1.404       .  A
C715        C716   1.400       .  A
C715       Br722   1.919       .  S
C716        C717   1.408       .  A
C716        H721   1.084       .  S
C717        C718   1.413       .  A
C718       Br719   1.922       .  S
C723        C724   1.406       .  A
C723        C728   1.404       .  A
C723        H730   1.084   1_455  S
C724        C725   1.402       .  A
C725        C726   1.397       .  A
C725       Br732   1.920       .  S
C726        C727   1.413       .  A
C726        H731   1.081       .  S
C727        C728   1.416       .  A
C728       Br729   1.921       .  S
C733        C734   1.400       .  A
C733        C738   1.393       .  A
C733        H740   1.085       .  S
C734        C735   1.398       .  A
C735        C736   1.391       .  A
C735       Br742   1.916       .  S
C736        C737   1.411       .  A
C736        H741   1.083       .  S
C737        C738   1.415       .  A
C738       Br739   1.924       .  S
C743        C744   1.389       .  A
C743        C748   1.387       .  A
C743        H750   1.084       .  S
C744        C745   1.426       .  A
C745        C746   1.387       .  A
C745       Br752   1.928       .  S
C746        C747   1.388       .  A
C746        H751   1.084       .  S
C747        C748   1.425       .  A
C748       Br749   1.928       .  S
C753        C754   1.410   1_554  A
C753        C758   1.406       .  A
C753        H760   1.083       .  S
C754        C755   1.418       .  A
C755        C756   1.386       .  A
C755       Br762   1.929       .  S
C756        C757   1.403   1_556  A
C756        H761   1.083       .  S
C757        C758   1.411       .  A
C758       Br759   1.919       .  S
C763        C764   1.404       .  A
C763        C768   1.402       .  A
C763        H770   1.084   1_556  S
C764        C765   1.410       .  A
C765        C766   1.407       .  A
C765       Br772   1.917       .  S
C766        C767   1.406       .  A
C766        H771   1.084       .  S
C767        C768   1.413       .  A
C768       Br769   1.922       .  S
C773        C774   1.403       .  A
C773        C778   1.399       .  A
C773        H780   1.084   1_655  S
C774        C775   1.400       .  A
C775        C776   1.396       .  A
C775       Br782   1.916       .  S
C776        C777   1.410       .  A
C776        H781   1.083       .  S
C777        C778   1.414       .  A
C778       Br779   1.922       .  S
C783        C784   1.408       .  A
C783        C788   1.399       .  A
C783        H790   1.083       .  S
C784        C785   1.421       .  A
C785        C786   1.393       .  A
C785       Br792   1.925       .  S
C786        C787   1.397       .  A
C786        H791   1.081       .  S
C787        C788   1.409       .  A
C788       Br789   1.921       .  S
C793        C794   1.392       .  A
C793        C798   1.386       .  A
C793        H800   1.084       .  S
C794        C795   1.432       .  A
C795        C796   1.384       .  A
C795       Br802   1.931       .  S
C796        C797   1.384       .  A
C796        H801   1.084       .  S
C797        C798   1.417       .  A
C798       Br799   1.924       .  S
C803        C804   1.414       .  A
C803        C808   1.405       .  A
C803        H810   1.083       .  S
C804        C805   1.419       .  A
C805        C806   1.413       .  A
C805       Br812   1.911       .  S
C806        C807   1.409       .  A
C806        H811   1.083       .  S
C807        C808   1.413       .  A
C808       Br809   1.922       .  S
C813        C814   1.400       .  A
C813        C818   1.396       .  A
C813        H820   1.085       .  S
C814        C815   1.410       .  A
C815        C816   1.406       .  A
C815       Br822   1.917       .  S
C816        C817   1.408       .  A
C816        H821   1.082       .  S
C817        C818   1.420       .  A
C818       Br819   1.926       .  S
C823        C824   1.403       .  A
C823        C828   1.405       .  A
C823        H830   1.083       .  S
C824        C825   1.422       .  A
C825        C826   1.397       .  A
C825       Br832   1.926       .  S
C826        C827   1.402       .  A
C826        H831   1.084       .  S
C827        C828   1.416       .  A
C828       Br829   1.907       .  S
