geometry optimzed in LAMMPS
_audit_creation_date              2020-12-01 
_audit_creation_method            'lammps2cif' 
_symmetry_space_group_name_H-M    'P1' 
_symmetry_Int_Tables_number       1 
_symmetry_cell_setting            triclinic 
loop_ 
_symmetry_equiv_pos_as_xyz 
  x,y,z 
_cell_length_a                    41.39807911 
_cell_length_b                    41.40972696531532 
_cell_length_c                    42.514243929486035 
_cell_angle_alpha                 90.14545763956586 
_cell_angle_beta                  89.93941765719669 
_cell_angle_gamma                 120.3030470660729 
loop_ 
_atom_site_label 
_atom_site_type_symbol 
_atom_site_fract_x 
_atom_site_fract_y 
_atom_site_fract_z 
_atom_site_charge 
Fe1        Fe  0.56763699  0.12319033  0.19279253     1.65800
Fe2        Fe  0.61991045  0.20171785  0.23486640     1.73200
Fe3        Fe  0.66078101  0.15533229  0.20471438     1.54400
O4          O  0.63246810  0.10046312  0.22141455    -0.81900
O5          O  0.67053567  0.23971213  0.21639976    -0.80200
O6          O  0.57645001  0.07862051  0.19946932    -0.84400
O7          O  0.59143036  0.13326090  0.14832785    -0.79300
O8          O  0.68114399  0.17229837  0.25009831    -0.81000
O9          O  0.59590634  0.21658798  0.19977049    -0.83800
C10         C  0.62220411  0.13626207  0.13922952     0.97000
C11         C  0.60003425  0.07355653  0.21449740     1.04400
O12         O  0.61621211  0.16007200  0.21081122    -1.12800
O13         O  0.56927053  0.16956822  0.25623794    -0.75200
O14         O  0.54154878  0.11161844  0.23657844    -0.78700
O15         O  0.64672651  0.13824648  0.15840448    -0.79400
C16         C  0.54404787  0.13539825  0.25689970     0.95900
O17         O  0.54962379  0.16138647  0.18406982    -0.77300
O18         O  0.64416144  0.19051822  0.27222481    -0.82500
C19         C  0.69332378  0.23983433  0.19651510     0.98500
C20         C  0.66978891  0.18232479  0.27392728     1.04400
O21         O  0.69283483  0.21015665  0.18773307    -0.78200
C22         C  0.56440666  0.19664165  0.18667931     1.02700
Fe23       Fe  0.78157044  0.26393401  0.45116104     1.65800
Fe24       Fe  0.75287771  0.31627273  0.41331558     1.73200
Fe25       Fe  0.84051142  0.35829579  0.44347042     1.54400
O26         O  0.84374823  0.34189540  0.48862685    -0.81900
O27         O  0.78857981  0.34320023  0.37633668    -0.80200
O28         O  0.79438383  0.28500061  0.49652540    -0.84400
O29         O  0.83595765  0.27544835  0.44387359    -0.79300
O30         O  0.81632621  0.38778491  0.46262927    -0.81000
O31         O  0.73496570  0.26660498  0.39003262    -0.83800
C32         C  0.86464320  0.30106275  0.43003421     0.97000
C33         C  0.82158956  0.31563128  0.50680290     1.04400
O34         O  0.79178229  0.31293519  0.43592747    -1.12800
O35         O  0.71418442  0.28944425  0.44836706    -0.75200
O36         O  0.72482696  0.24342090  0.46009509    -0.78700
O37         O  0.86901625  0.33322004  0.42472367    -0.79400
C38         C  0.70350719  0.25721311  0.45943030     0.95900
O39         O  0.76751898  0.24023274  0.40637270    -0.77300
O40         O  0.76434823  0.36564526  0.43402543    -0.82500
C41         C  0.82236825  0.36972157  0.37539070     0.98500
C42         C  0.78688733  0.38797962  0.45438092     1.04400
O43         O  0.84345697  0.38070746  0.39938902    -0.78200
C44         C  0.74444100  0.24197805  0.38768204     1.02700
Fe45       Fe  0.71483350  0.54819700  0.45363609     1.65800
Fe46       Fe  0.66495815  0.46921477  0.41104882     1.73200
Fe47       Fe  0.62066448  0.51154137  0.44240845     1.54400
O48         O  0.63427128  0.52868954  0.48849128    -0.81900
O49         O  0.63889808  0.47918446  0.37428512    -0.80200
O50         O  0.69128909  0.53773341  0.49825056    -0.84400
O51         O  0.70336537  0.59100518  0.44651495    -0.79300
O52         O  0.59134947  0.45671235  0.45944069    -0.81000
O53         O  0.71475205  0.50337062  0.38909164    -0.83800
C54         C  0.67835157  0.59410585  0.43181703     0.97000
C55         C  0.65976258  0.53272299  0.50742878     1.04400
O56         O  0.66679781  0.50965144  0.43574245    -1.12800
O57         O  0.69110289  0.45591339  0.44538146    -0.75200
O58         O  0.73482130  0.51169020  0.46285929    -0.78700
O59         O  0.64633895  0.56614810  0.42562297    -0.79400
C60         C  0.72153812  0.47667014  0.45974693     0.95900
O61         O  0.74129084  0.56071191  0.40986682    -0.77300
O62         O  0.61546946  0.42930851  0.43019605    -0.82500
C63         C  0.61238199  0.48614005  0.37310814     0.98500
C64         C  0.59251940  0.42793704  0.45058635     1.04400
O65         O  0.60009504  0.49430302  0.39735891    -0.78200
C66         C  0.73938201  0.53775549  0.38895076     1.02700
Fe67       Fe  0.50082799  0.40789271  0.19585508     1.65800
Fe68       Fe  0.53101837  0.35771520  0.23537963     1.73200
Fe69       Fe  0.44300128  0.31369063  0.20621241     1.54400
O70         O  0.41442181  0.33921338  0.22425275    -0.81900
O71         O  0.52021533  0.30806812  0.21600900    -0.80200
O72         O  0.44632627  0.39624852  0.20348386    -0.84400
O73         O  0.48754970  0.38471935  0.15100997    -0.79300
O74         O  0.44097675  0.29330532  0.25113741    -0.81000
O75         O  0.56902488  0.38364128  0.19978848    -0.83800
C76         C  0.46082606  0.35326562  0.14149325     0.97000
C77         C  0.41839926  0.37116308  0.21850986     1.04400
O78         O  0.49146831  0.35969310  0.21256988    -1.12800
O79         O  0.54836537  0.40779231  0.25728606    -0.75200
O80         O  0.51551726  0.43347923  0.24002520    -0.78700
O81         O  0.43883488  0.32782424  0.16038283    -0.79400
C82         C  0.53874631  0.43232163  0.25896149     0.95900
O83         O  0.55762253  0.42877060  0.18662944    -0.77300
O84         O  0.49624141  0.33185044  0.27305573    -0.82500
C85         C  0.49797278  0.28522030  0.19581758     0.98500
C86         C  0.46252219  0.30540668  0.27485943     1.04400
O87         O  0.46781397  0.28420118  0.18785266    -0.78200
C88         C  0.57936884  0.41551341  0.18813667     1.02700
Fe89       Fe  0.43213760  0.19530691  0.45234580     1.65800
Fe90       Fe  0.51120275  0.22166909  0.41145066     1.73200
Fe91       Fe  0.46471068  0.13489689  0.44205560     1.54400
O92         O  0.44572548  0.13138193  0.48771355    -0.81900
O93         O  0.49879791  0.18583431  0.37392480    -0.80200
O94         O  0.44138542  0.18208348  0.49716466    -0.84400
O95         O  0.38766259  0.14125679  0.44502351    -0.79300
O96         O  0.51844594  0.15843771  0.46062876    -0.81000
O97         O  0.48006641  0.24144605  0.39044732    -0.83800
C98         C  0.38388199  0.11322782  0.42956762     0.97000
C99         C  0.44393455  0.15427542  0.50662393     1.04400
O100        O  0.46928821  0.18387361  0.43527999    -1.12800
O101        O  0.52617232  0.26007873  0.44707480    -0.75200
O102        O  0.47080946  0.25179022  0.46117737    -0.78700
O103        O  0.41104662  0.10811196  0.42366501    -0.79400
C104        C  0.50626667  0.27197058  0.45946651     0.95900
O105        O  0.42144012  0.20978565  0.40832091    -0.77300
O106        O  0.54881188  0.20819056  0.42958685    -0.82500
C107        C  0.49212986  0.15237769  0.37304675     0.98500
C108        C  0.54841057  0.18657527  0.45079324     1.04400
O109        O  0.48359446  0.13197104  0.39740238    -0.78200
C110        C  0.44595517  0.23238621  0.38908511     1.02700
Fe111      Fe  0.85125307  0.47387905  0.19528359     1.65800
Fe112      Fe  0.77226984  0.44868913  0.23700721     1.73200
Fe113      Fe  0.81927146  0.53536923  0.20460811     1.54400
O114        O  0.87441196  0.56284194  0.22034031    -0.81900
O115        O  0.73409358  0.45877051  0.21530796    -0.80200
O116        O  0.89635661  0.52774056  0.20084504    -0.84400
O117        O  0.84095594  0.48556109  0.15025276    -0.79300
O118        O  0.80418586  0.54189888  0.24957838    -0.81000
O119        O  0.75829042  0.40657343  0.20447628    -0.83800
C120        C  0.83669600  0.51208959  0.14006569     0.97000
C121        C  0.90120873  0.55706074  0.21464694     1.04400
O122        O  0.81419988  0.48599917  0.21238043    -1.12800
O123        O  0.80541732  0.43354924  0.26094035    -0.75200
O124        O  0.86261754  0.46056016  0.23954328    -0.78700
O125        O  0.83427404  0.53521203  0.15826741    -0.79400
C126        C  0.83916379  0.44113358  0.26082685     0.95900
O127        O  0.81353272  0.41729433  0.18749744    -0.77300
O128        O  0.78162055  0.48642105  0.27268579    -0.82500
C129        C  0.73439147  0.48257324  0.19648848     0.98500
C130        C  0.79190002  0.52094850  0.27351565     1.04400
O131        O  0.76415634  0.51250161  0.18888246    -0.78200
C132        C  0.77857780  0.39582715  0.19098339     1.02700
Fe133      Fe  0.42835183  0.26087974  0.95472522     1.65800
Fe134      Fe  0.50540594  0.31073574  0.91022286     1.73200
Fe135      Fe  0.46430361  0.35461902  0.94359871     1.54400
O136        O  0.40991721  0.32899042  0.92675161    -0.81900
O137        O  0.54578001  0.36100257  0.92841635    -0.80200
O138        O  0.38552365  0.27291138  0.94939703    -0.84400
O139        O  0.44085436  0.28475764  0.99933219    -0.79300
O140        O  0.48223677  0.37622836  0.89885567    -0.81000
O141        O  0.52021717  0.28564886  0.94408934    -0.83800
C142        C  0.44447008  0.31573553  0.00854478     0.97000
C143        C  0.38210625  0.29738265  0.93406614     1.04400
O144        O  0.46596613  0.30868725  0.93616829    -1.12800
O145        O  0.47070716  0.26028318  0.88932123    -0.75200
O146        O  0.41392890  0.23407517  0.91110173    -0.78700
O147        O  0.44672421  0.34040689  0.98953687    -0.79400
C148        C  0.43638971  0.23540596  0.88998339     0.95900
O149        O  0.46528774  0.24073176  0.96183160    -0.77300
O150        O  0.49359257  0.33580801  0.87385972    -0.82500
C151        C  0.54750516  0.38268419  0.95028008     0.98500
C152        C  0.48906179  0.36388782  0.87390353     1.04400
O153        O  0.51886484  0.38293813  0.96076892    -0.78200
C154        C  0.50029386  0.25459280  0.95776176     1.02700
Fe155      Fe  0.56899368  0.47210821  0.69482531     1.65800
Fe156      Fe  0.62076019  0.44580402  0.73833392     1.73200
Fe157      Fe  0.66365758  0.53249741  0.70541837     1.54400
O158        O  0.65051023  0.53433556  0.65918731    -0.81900
O159        O  0.64986523  0.48325005  0.77385707    -0.80200
O160        O  0.59235048  0.48817840  0.65021637    -0.84400
O161        O  0.57787336  0.52469813  0.70544060    -0.79300
O162        O  0.69445172  0.50793028  0.68997327    -0.81000
O163        O  0.57303885  0.43192309  0.76248376    -0.83800
C164        C  0.60367421  0.55422501  0.71820903     0.97000
C165        C  0.62409641  0.51393907  0.64052179     1.04400
O166        O  0.61774359  0.48341777  0.71284024    -1.12800
O167        O  0.59143540  0.40353627  0.70648433    -0.75200
O168        O  0.55150478  0.41688044  0.68310041    -0.78700
O169        O  0.63718968  0.56115739  0.72078424    -0.79400
C170        C  0.56314509  0.39451310  0.68927261     0.95900
O171        O  0.54086567  0.45418663  0.73763215    -0.77300
O172        O  0.66838163  0.45425535  0.71661404    -0.82500
C173        C  0.67505670  0.51746329  0.77441814     0.98500
C174        C  0.69257580  0.47730899  0.69766275     1.04400
O175        O  0.68441219  0.53819738  0.75038912    -0.78200
C176        C  0.54553188  0.43710198  0.76040337     1.02700
Fe177      Fe  0.49533257  0.12158490  0.69484003     1.65800
Fe178      Fe  0.52207257  0.19888599  0.73880222     1.73200
Fe179      Fe  0.43607157  0.15557094  0.70573130     1.54400
O180        O  0.43350504  0.13848518  0.65951423    -0.81900
O181        O  0.48457677  0.18715063  0.77489096    -0.80200
O182        O  0.48415029  0.13394653  0.65036940    -0.84400
O183        O  0.44053499  0.07790988  0.70001247    -0.79300
O184        O  0.46148576  0.21027681  0.68882939    -0.81000
O185        O  0.53786015  0.16474506  0.76027691    -0.83800
C186        C  0.41280243  0.07381303  0.71609413     0.97000
C187        C  0.45687684  0.13737079  0.64078062     1.04400
O188        O  0.48453359  0.15873861  0.71314828    -1.12800
O189        O  0.56321262  0.21400707  0.70539252    -0.75200
O190        O  0.55246729  0.15886318  0.68788589    -0.78700
O191        O  0.40803353  0.10107135  0.72279638    -0.79400
C192        C  0.57407291  0.19380365  0.69191229     0.95900
O193        O  0.50807960  0.10786349  0.73837964    -0.77300
O194        O  0.51190744  0.23836631  0.71972218    -0.82500
C195        C  0.45120925  0.18076487  0.77521743     0.98500
C196        C  0.49087033  0.23933769  0.69854934     1.04400
O197        O  0.43147987  0.17280830  0.75052077    -0.78200
C198        C  0.52925208  0.13072137  0.75937265     1.02700
Fe199      Fe  0.71083222  0.19143385  0.95216355     1.65800
Fe200      Fe  0.66175498  0.21814299  0.90603442     1.73200
Fe201      Fe  0.61703529  0.13250822  0.93961156     1.54400
O202        O  0.64331195  0.10372595  0.92461575    -0.81900
O203        O  0.61233446  0.20942745  0.92486195    -0.80200
O204        O  0.69937922  0.13678588  0.94718304    -0.84400
O205        O  0.68612595  0.17983539  0.99633720    -0.79300
O206        O  0.59662780  0.12734155  0.89425423    -0.81000
O207        O  0.68874889  0.25998308  0.93879759    -0.83800
C208        C  0.65472137  0.15278627  0.00540490     0.97000
C209        C  0.67504795  0.10826115  0.93218344     1.04400
O210        O  0.66322636  0.18075144  0.93258493    -1.12800
O211        O  0.71130758  0.23198999  0.88479308    -0.75200
O212        O  0.73875345  0.20426663  0.90911373    -0.78700
O213        O  0.62990766  0.13043699  0.98625059    -0.79400
C214        C  0.73676344  0.22367158  0.88682264     0.95900
O215        O  0.73113275  0.24842920  0.95951515    -0.77300
O216        O  0.63509230  0.18059027  0.86992433    -0.82500
C217        C  0.58892777  0.18804566  0.94522140     0.98500
C218        C  0.60805962  0.14714039  0.86960004     1.04400
O219        O  0.58744618  0.15821326  0.95474988    -0.78200
C220        C  0.71872401  0.27033871  0.95404482     1.02700
Fe221      Fe  0.85067615  0.40298405  0.69420932     1.65800
Fe222      Fe  0.77324140  0.35161195  0.73942287     1.73200
Fe223      Fe  0.81567032  0.30843819  0.70536033     1.54400
O224        O  0.83011582  0.32107646  0.65901608    -0.81900
O225        O  0.78317205  0.32356078  0.77481542    -0.80200
O226        O  0.84280648  0.37927901  0.64975813    -0.84400
O227        O  0.89479518  0.39433851  0.70376871    -0.79300
O228        O  0.75970097  0.27752597  0.69054701    -0.81000
O229        O  0.80785911  0.40029405  0.76248571    -0.83800
C230        C  0.89841283  0.36869836  0.71663682     0.97000
C231        C  0.83659752  0.34744968  0.64035658     1.04400
O232        O  0.81317622  0.35443633  0.71289949    -1.12800
O233        O  0.75922825  0.37997758  0.70768143    -0.75200
O234        O  0.81235832  0.41985050  0.68337024    -0.78700
O235        O  0.87128909  0.33543061  0.72021529    -0.79400
C236        C  0.77833848  0.40814111  0.69022198     0.95900
O237        O  0.86196686  0.43197537  0.73660336    -0.77300
O238        O  0.73297793  0.30313783  0.71889068    -0.82500
C239        C  0.79150269  0.29798427  0.77491747     0.98500
C240        C  0.73107118  0.27905158  0.69941883     1.04400
O241        O  0.80113697  0.28778042  0.75033865    -0.78200
C242        C  0.84055931  0.42802869  0.75952543     1.02700
Fe243      Fe  0.78041101  0.54402808  0.95293948     1.65800
Fe244      Fe  0.75454481  0.46708986  0.90854375     1.73200
Fe245      Fe  0.84058839  0.51120561  0.94130510     1.54400
O246        O  0.86811970  0.56642054  0.92562332    -0.81900
O247        O  0.76582926  0.42779410  0.92619402    -0.80200
O248        O  0.83454362  0.58872091  0.94780510    -0.84400
O249        O  0.79215891  0.53210706  0.99719690    -0.79300
O250        O  0.84539806  0.49590617  0.89582677    -0.81000
O251        O  0.71434695  0.45108449  0.94279466    -0.83800
C252        C  0.81915084  0.52821559  0.00669258     0.97000
C253        C  0.86283934  0.59335536  0.93237906     1.04400
O254        O  0.79189126  0.50741387  0.93428797    -1.12800
O255        O  0.73739277  0.50043741  0.88784329    -0.75200
O256        O  0.76743191  0.55742520  0.90944721    -0.78700
O257        O  0.84213493  0.52632388  0.98796963    -0.79400
C258        C  0.74667821  0.53461802  0.88829274     0.95900
O259        O  0.72386973  0.50573752  0.96041795    -0.77300
O260        O  0.79159637  0.48003763  0.87187889    -0.82500
C261        C  0.78720151  0.42659027  0.94686321     0.98500
C262        C  0.82535785  0.48764170  0.87125019     1.04400
O263        O  0.81625082  0.45578760  0.95691654    -0.78200
C264        C  0.70313378  0.47063267  0.95690618     1.02700
Fe265      Fe  0.23392700  0.45078205  0.53102153     1.65800
Fe266      Fe  0.28399116  0.53101548  0.57188039     1.73200
Fe267      Fe  0.32880288  0.48979106  0.53988316     1.54400
O268        O  0.30492222  0.43604050  0.55781448    -0.81900
O269        O  0.33336263  0.57121107  0.55236324    -0.80200
O270        O  0.24678556  0.40897356  0.53874055    -0.84400
O271        O  0.25615009  0.46037220  0.48591733    -0.79300
O272        O  0.35061593  0.50888333  0.58410510    -0.81000
O273        O  0.25696999  0.54295074  0.53738051    -0.83800
C274        C  0.28762258  0.46581542  0.47613413     0.97000
C275        C  0.27292790  0.40746374  0.55304905     1.04400
O276        O  0.28222520  0.49048886  0.54752507    -1.12800
O277        O  0.23451073  0.49723004  0.59441532    -0.75200
O278        O  0.20851097  0.43919494  0.57534410    -0.78700
O279        O  0.31377994  0.47070549  0.49459182    -0.79400
C280        C  0.21021269  0.46279912  0.59551865     0.95900
O281        O  0.21294433  0.48637558  0.52154546    -0.77300
O282        O  0.31066488  0.52153503  0.60849893    -0.82500
C283        C  0.35591110  0.57291941  0.53138704     0.98500
C284        C  0.33834598  0.51631541  0.60872761     1.04400
O285        O  0.35669312  0.54418851  0.52176984    -0.78200
C286        C  0.22612880  0.52147182  0.52376113     1.02700
Fe287      Fe  0.09585309  0.52658621  0.78875762     1.65800
Fe288      Fe  0.17476846  0.55214552  0.74734035     1.73200
Fe289      Fe  0.12814547  0.46587293  0.77940306     1.54400
O290        O  0.10909189  0.46303907  0.82505988    -0.81900
O291        O  0.16361958  0.51514073  0.71070347    -0.80200
O292        O  0.10528434  0.51408195  0.83383060    -0.84400
O293        O  0.05131977  0.47246480  0.78215609    -0.79300
O294        O  0.18206602  0.48990907  0.79797034    -0.81000
O295        O  0.14288946  0.56980545  0.72492322    -0.83800
C296        C  0.04714186  0.44422766  0.76677845     0.97000
C297        C  0.10704984  0.48600362  0.84374516     1.04400
O298        O  0.13295835  0.51489339  0.77181487    -1.12800
O299        O  0.18948406  0.59259022  0.78135793    -0.75200
O300        O  0.13411404  0.58313240  0.79690356    -0.78700
O301        O  0.07427115  0.43897418  0.76085340    -0.79400
C302        C  0.16933590  0.60397644  0.79411006     0.95900
O303        O  0.08492069  0.54045669  0.74459642    -0.77300
O304        O  0.21238084  0.54016572  0.76731442    -0.82500
C305        C  0.15666821  0.48157411  0.71053130     0.98500
C306        C  0.21193614  0.51862169  0.78859769     1.04400
O307        O  0.14708513  0.46155645  0.73513873    -0.78200
C308        C  0.10898130  0.56149523  0.72433512     1.02700
Fe309      Fe  0.37847305  0.87979978  0.78793663     1.65800
Fe310      Fe  0.32754644  0.80111884  0.74515109     1.73200
Fe311      Fe  0.28423596  0.84358749  0.77802192     1.54400
O312        O  0.29949441  0.86083351  0.82414138    -0.81900
O313        O  0.29998503  0.81044151  0.70925483    -0.80200
O314        O  0.35590260  0.86783823  0.83288462    -0.84400
O315        O  0.36665212  0.92294057  0.78288062    -0.79300
O316        O  0.25476959  0.78888290  0.79480821    -0.81000
O317        O  0.37662640  0.83608527  0.72248418    -0.83800
C318        C  0.34205658  0.92582692  0.76725926     0.97000
C319        C  0.32488352  0.86358306  0.84269683     1.04400
O320        O  0.33001688  0.84140001  0.77039309    -1.12800
O321        O  0.35515878  0.78774841  0.77813632    -0.75200
O322        O  0.39962710  0.84361359  0.79460571    -0.78700
O323        O  0.31010870  0.89788336  0.76105693    -0.79400
C324        C  0.38666093  0.80870420  0.79087262     0.95900
O325        O  0.40360618  0.89327342  0.74387735    -0.77300
O326        O  0.27861777  0.76122893  0.76538148    -0.82500
C327        C  0.27290092  0.81654905  0.70879462     0.98500
C328        C  0.25554014  0.76001326  0.78562218     1.04400
O329        O  0.26191618  0.82590013  0.73322373    -0.78200
C330        C  0.40135843  0.87049789  0.72266665     1.02700
Fe331      Fe  0.16558343  0.73325511  0.52986178     1.65800
Fe332      Fe  0.19551810  0.68291839  0.56894622     1.73200
Fe333      Fe  0.10691969  0.63958894  0.54055447     1.54400
O334        O  0.07976705  0.66615339  0.55917276    -0.81900
O335        O  0.18395663  0.63325479  0.54869144    -0.80200
O336        O  0.11092181  0.72160140  0.53586549    -0.84400
O337        O  0.15314084  0.71021400  0.48505619    -0.79300
O338        O  0.10487764  0.61914286  0.58527023    -0.81000
O339        O  0.23394200  0.70937942  0.53346160    -0.83800
C340        C  0.12544235  0.67918944  0.47579878     0.97000
C341        C  0.08382231  0.69784665  0.55238513     1.04400
O342        O  0.15594352  0.68502646  0.54642839    -1.12800
O343        O  0.21245424  0.73285862  0.59169150    -0.75200
O344        O  0.17845894  0.75744334  0.57454156    -0.78700
O345        O  0.10290992  0.65427132  0.49482145    -0.79400
C346        C  0.20133190  0.75628095  0.59390840     0.95900
O347        O  0.22287463  0.75497237  0.52173639    -0.77300
O348        O  0.16081511  0.65667657  0.60657197    -0.82500
C349        C  0.16039989  0.60961474  0.52955031     0.98500
C350        C  0.12682229  0.63096154  0.60869699     1.04400
O351        O  0.13018389  0.60881371  0.52222679    -0.78200
C352        C  0.24464224  0.74170500  0.52262575     1.02700
Fe353      Fe  0.44360967  0.59301704  0.78814812     1.65800
Fe354      Fe  0.41754375  0.64522432  0.74591174     1.73200
Fe355      Fe  0.50564356  0.68678500  0.77650113     1.54400
O356        O  0.50649575  0.67399042  0.82332372    -0.81900
O357        O  0.45412894  0.67247018  0.70964140    -0.80200
O358        O  0.45829925  0.61664061  0.83241866    -0.84400
O359        O  0.49625406  0.60121312  0.78054896    -0.79300
O360        O  0.48332995  0.72023811  0.79094045    -0.81000
O361        O  0.40139244  0.59600759  0.72269167    -0.83800
C362        C  0.52660829  0.62560691  0.76802693     0.97000
C363        C  0.48498606  0.64796793  0.84199105     1.04400
O364        O  0.45570263  0.64178118  0.77013084    -1.12800
O365        O  0.37660828  0.61836809  0.77933823    -0.75200
O366        O  0.38795934  0.57508568  0.79804106    -0.78700
O367        O  0.53341857  0.65863450  0.76239192    -0.79400
C368        C  0.36655995  0.58835918  0.79427824     0.95900
O369        O  0.42786442  0.56614537  0.74490792    -0.77300
O370        O  0.42823419  0.69423297  0.76647597    -0.82500
C371        C  0.48884614  0.69595444  0.70738947     0.98500
C372        C  0.45285122  0.71919125  0.78402925     1.04400
O373        O  0.51099997  0.70551039  0.73062809    -0.78200
C374        C  0.40868717  0.56975414  0.72335801     1.02700
Fe375      Fe  0.51713102  0.80704461  0.53132064     1.65800
Fe376      Fe  0.43866472  0.78144704  0.57340739     1.73200
Fe377      Fe  0.48526564  0.86799507  0.54184733     1.54400
O378        O  0.53959304  0.89451124  0.56024062    -0.81900
O379        O  0.40055774  0.79331762  0.55378411    -0.80200
O380        O  0.56187299  0.86105415  0.53777874    -0.84400
O381        O  0.50679332  0.81981777  0.48671839    -0.79300
O382        O  0.46680388  0.87214709  0.58587959    -0.81000
O383        O  0.42368540  0.74088361  0.53929586    -0.83800
C384        C  0.50480211  0.84799082  0.47740789     0.97000
C385        C  0.56654694  0.88907503  0.55376726     1.04400
O386        O  0.48027756  0.81878356  0.54888560    -1.12800
O387        O  0.47112785  0.76402842  0.59533740    -0.75200
O388        O  0.52880604  0.79282340  0.57508722    -0.78700
O389        O  0.50398043  0.87129093  0.49635248    -0.79400
C390        C  0.50485656  0.77159022  0.59533626     0.95900
O391        O  0.47880804  0.75046654  0.52297609    -0.77300
O392        O  0.45008009  0.81840507  0.61010464    -0.82500
C393        C  0.40076044  0.81529383  0.53299317     0.98500
C394        C  0.45734999  0.85206906  0.61032774     1.04400
O395        O  0.43072875  0.84416956  0.52372058    -0.78200
C396        C  0.44363150  0.72952058  0.52604534     1.02700
Fe397      Fe  0.23515462  0.80535306  0.03007495     1.65800
Fe398      Fe  0.28496319  0.77488801  0.06972646     1.73200
Fe399      Fe  0.32902484  0.86322936  0.04123055     1.54400
O400        O  0.31514205  0.86726495  0.99515922    -0.81900
O401        O  0.31099812  0.80937982  0.10777019    -0.80200
O402        O  0.25849656  0.81806982  0.98542892    -0.84400
O403        O  0.24680010  0.85989061  0.03676385    -0.79300
O404        O  0.35937541  0.83913928  0.02335992    -0.81000
O405        O  0.23474726  0.75778714  0.09151727    -0.83800
C406        C  0.27116861  0.88741758  0.05262521     0.97000
C407        C  0.28982293  0.84513248  0.97612526     1.04400
O408        O  0.28320766  0.81461746  0.04708278    -1.12800
O409        O  0.25899091  0.73696815  0.03385116    -0.75200
O410        O  0.21376069  0.74846805  0.02148222    -0.78700
O411        O  0.30289119  0.89128056  0.05922095    -0.79400
C412        C  0.22684085  0.72659962  0.02272200     0.95900
O413        O  0.21001382  0.79159739  0.07430364    -0.77300
O414        O  0.33473633  0.78591252  0.05038864    -0.82500
C415        C  0.33741748  0.84313975  0.10970906     0.98500
C416        C  0.35835837  0.80892650  0.03106151     1.04400
O417        O  0.34889606  0.86499648  0.08623424    -0.78200
C418        C  0.21094068  0.76838505  0.09337771     1.02700
Fe419      Fe  0.44723727  0.87485097  0.28937132     1.65800
Fe420      Fe  0.42331408  0.79654362  0.24620571     1.73200
Fe421      Fe  0.51002456  0.84382328  0.27907266     1.54400
O422        O  0.53702557  0.89895176  0.26309776    -0.81900
O423        O  0.43269293  0.75891488  0.26917403    -0.80200
O424        O  0.49909684  0.92001802  0.27796359    -0.84400
O425        O  0.46452850  0.86939651  0.33398632    -0.79300
O426        O  0.51655524  0.82824303  0.23443258    -0.81000
O427        O  0.38029021  0.78294236  0.27727377    -0.83800
C428        C  0.49077793  0.86437984  0.34360321     0.97000
C429        C  0.52910875  0.92484854  0.26547681     1.04400
O430        O  0.46013083  0.83846226  0.27152674    -1.12800
O431        O  0.40863740  0.82889707  0.22120270    -0.75200
O432        O  0.42738056  0.88278285  0.24667268    -0.78700
O433        O  0.51189125  0.85965618  0.32498993    -0.79400
C434        C  0.41143087  0.86062567  0.22367188     0.95900
O435        O  0.39264970  0.83542012  0.30192732    -0.77300
O436        O  0.46121444  0.80504549  0.21113967    -0.82500
C437        C  0.45609804  0.75914620  0.28841198     0.98500
C438        C  0.49569389  0.81541716  0.21052668     1.04400
O439        O  0.48669649  0.78868955  0.29544378    -0.78200
C440        C  0.37068646  0.80129128  0.29503544     1.02700
Fe441      Fe  0.09294481  0.59405386  0.28824395     1.65800
Fe442      Fe  0.17210142  0.64212059  0.24615228     1.73200
Fe443      Fe  0.13191175  0.68793121  0.27731553     1.54400
O444        O  0.07822682  0.66326899  0.25833338    -0.81900
O445        O  0.21287770  0.69224655  0.26436688    -0.80200
O446        O  0.05155666  0.60793182  0.28230313    -0.84400
O447        O  0.10523362  0.61729802  0.33273222    -0.79300
O448        O  0.15188162  0.70949400  0.23288077    -0.81000
O449        O  0.18483342  0.61630688  0.28129820    -0.83800
C450        C  0.10929266  0.64841137  0.34193529     0.97000
C451        C  0.04960548  0.63197520  0.26514530     1.04400
O452        O  0.13239730  0.64141140  0.27061582    -1.12800
O453        O  0.13682394  0.59159130  0.22548319    -0.75200
O454        O  0.07899154  0.56822913  0.24452028    -0.78700
O455        O  0.11209411  0.67332307  0.32287904    -0.79400
C456        C  0.10206373  0.56797871  0.22493310     0.95900
O457        O  0.12796687  0.57193305  0.29592190    -0.77300
O458        O  0.16193770  0.66759809  0.20890131    -0.82500
C459        C  0.21475903  0.71407236  0.28617682     0.98500
C460        C  0.15789265  0.69600815  0.20821756     1.04400
O461        O  0.18616757  0.71504382  0.29602702    -0.78200
C462        C  0.16304409  0.58491437  0.29382722     1.02700
Fe463      Fe  0.16222052  0.45458104  0.03164561     1.65800
Fe464      Fe  0.18864577  0.53354753  0.07351865     1.73200
Fe465      Fe  0.10136432  0.48698274  0.04249414     1.54400
O466        O  0.09900200  0.47065827  0.99621430    -0.81900
O467        O  0.15220495  0.52219905  0.11029395    -0.80200
O468        O  0.14821080  0.46350350  0.98683524    -0.84400
O469        O  0.10866470  0.40972547  0.03909877    -0.79300
O470        O  0.12453715  0.54164659  0.02576275    -0.81000
O471        O  0.20650831  0.50148301  0.09561564    -0.83800
C472        C  0.08035755  0.40557002  0.05420430     0.97000
C473        C  0.12113933  0.46744019  0.97745312     1.04400
O474        O  0.15073267  0.49176179  0.04914099    -1.12800
O475        O  0.22861939  0.54832323  0.03921987    -0.75200
O476        O  0.21862765  0.49306697  0.02274450    -0.78700
O477        O  0.07445930  0.43239594  0.05939450    -0.79400
C478        C  0.23971324  0.52823462  0.02592281     0.95900
O479        O  0.17724815  0.44375933  0.07545210    -0.77300
O480        O  0.17682150  0.57164312  0.05416319    -0.82500
C481        C  0.11800555  0.51302294  0.11161242     0.98500
C482        C  0.15392796  0.57141820  0.03434150     1.04400
O483        O  0.09705582  0.50324744  0.08758213    -0.78200
C484        C  0.19837096  0.46761628  0.09586396     1.02700
Fe485      Fe  0.51816320  0.73548292  0.03001392     1.65800
Fe486      Fe  0.44008647  0.68557992  0.07455006     1.73200
Fe487      Fe  0.48066509  0.64052618  0.04057048     1.54400
O488        O  0.49516891  0.65359538  0.99409884    -0.81900
O489        O  0.44837883  0.65652232  0.10970965    -0.80200
O490        O  0.50850707  0.71215074  0.98535427    -0.84400
O491        O  0.56119156  0.72451673  0.03791388    -0.79300
O492        O  0.42468751  0.61090649  0.02590517    -0.81000
O493        O  0.47596641  0.73337661  0.09815688    -0.83800
C494        C  0.56416418  0.69831279  0.05044613     0.97000
C495        C  0.50168691  0.68022046  0.97561493     1.04400
O496        O  0.47964410  0.68722635  0.04832103    -1.12800
O497        O  0.42742283  0.71482321  0.04283494    -0.75200
O498        O  0.48138106  0.75485157  0.01999316    -0.78700
O499        O  0.53626403  0.66576415  0.05501652    -0.79400
C500        C  0.44713294  0.74323427  0.02587145     0.95900
O501        O  0.53093103  0.76315027  0.07325578    -0.77300
O502        O  0.39899005  0.63794433  0.05368647    -0.82500
C503        C  0.45604004  0.63053026  0.11012134     0.98500
C504        C  0.39653452  0.61343989  0.03443225     1.04400
O505        O  0.46580680  0.61996904  0.08576881    -0.78200
C506        C  0.50965323  0.75949932  0.09623927     1.02700
Fe507      Fe  0.37605869  0.52496425  0.28901744     1.65800
Fe508      Fe  0.32486801  0.55348206  0.24820166     1.73200
Fe509      Fe  0.28229222  0.46549664  0.27812147     1.54400
O510        O  0.30920407  0.43788257  0.26109748    -0.81900
O511        O  0.27624640  0.54353818  0.26953066    -0.80200
O512        O  0.36541543  0.47073600  0.28303109    -0.84400
O513        O  0.35317869  0.51255565  0.33372811    -0.79300
O514        O  0.26147718  0.46139119  0.23327344    -0.81000
O515        O  0.35310522  0.59393707  0.28192909    -0.83800
C516        C  0.32209521  0.48525354  0.34309513     0.97000
C517        C  0.34122621  0.44256517  0.26770893     1.04400
O518        O  0.32757866  0.51466404  0.27176522    -1.12800
O519        O  0.37362372  0.56833160  0.22452088    -0.75200
O520        O  0.40093699  0.53816312  0.24482466    -0.78700
O521        O  0.29664598  0.46311331  0.32421749    -0.79400
C522        C  0.39824900  0.55868117  0.22394583     0.95900
O523        O  0.39695081  0.58173854  0.29741749    -0.77300
O524        O  0.29645747  0.51745086  0.21156305    -0.82500
C525        C  0.25176505  0.51914396  0.28756582     0.98500
C526        C  0.27124236  0.48320302  0.20988817     1.04400
O527        O  0.25090270  0.48885245  0.29469857    -0.78200
C528        C  0.38437821  0.60389388  0.29473106     1.02700
Fe529      Fe  0.90569239  0.14408903  0.36700690     1.65800
Fe530      Fe  0.95826832  0.11858816  0.40921280     1.73200
Fe531      Fe  0.99989246  0.20420005  0.37577894     1.54400
O532        O  0.98386778  0.20605605  0.33027595    -0.81900
O533        O  0.98529060  0.15633611  0.44489414    -0.80200
O534        O  0.92790290  0.15563128  0.32200890    -0.84400
O535        O  0.91648756  0.19856793  0.37284868    -0.79300
O536        O  0.02916163  0.17886817  0.35814759    -0.81000
O537        O  0.90916922  0.10273029  0.43195294    -0.83800
C538        C  0.94154899  0.22757695  0.38690160     0.97000
C539        C  0.95856940  0.18286303  0.31194375     1.04400
O540        O  0.95459944  0.15565885  0.38406362    -1.12800
O541        O  0.93114780  0.07715417  0.37617043    -0.75200
O542        O  0.88619372  0.08720506  0.35932981    -0.78700
O543        O  0.97390522  0.23263330  0.39291189    -0.79400
C544        C  0.89988569  0.06601120  0.36283489     0.95900
O545        O  0.88029230  0.13091077  0.41111618    -0.77300
O546        O  0.00740544  0.12877614  0.38909405    -0.82500
C547        C  0.01226787  0.18982428  0.44474249     0.98500
C548        C  0.02913132  0.14970434  0.36771743     1.04400
O549        O  0.02299634  0.20955755  0.42003433    -0.78200
C550        C  0.88329481  0.11052780  0.43191705     1.02700
Fe551      Fe  0.11809873  0.21314637  0.62299620     1.65800
Fe552      Fe  0.08972033  0.13510296  0.57911822     1.73200
Fe553      Fe  0.17614246  0.17712285  0.61189211     1.54400
O554        O  0.20580723  0.23240201  0.59682423    -0.81900
O555        O  0.09843025  0.09475515  0.59799039    -0.80200
O556        O  0.17247275  0.25643959  0.61641294    -0.84400
O557        O  0.13075608  0.20269285  0.66754620    -0.79300
O558        O  0.18100333  0.16201826  0.56630289    -0.81000
O559        O  0.04888065  0.12105221  0.61264560    -0.83800
C560        C  0.15683995  0.19744613  0.67725322     0.97000
C561        C  0.20121714  0.25997575  0.60248646     1.04400
O562        O  0.12800300  0.17507704  0.60476091    -1.12800
O563        O  0.07509810  0.16969296  0.55721271    -0.75200
O564        O  0.10454089  0.22623413  0.57955696    -0.78700
O565        O  0.17790050  0.19231991  0.65858460    -0.79400
C566        C  0.08420510  0.20379627  0.55805041     0.95900
O567        O  0.06131752  0.17619571  0.63172218    -0.77300
O568        O  0.12681525  0.14568094  0.54288007    -0.82500
C569        C  0.12043872  0.09274797  0.61746161     0.98500
C570        C  0.16060216  0.15336477  0.54193364     1.04400
O571        O  0.15045492  0.12138307  0.62688275    -0.78200
C572        C  0.03919787  0.14137435  0.62756756     1.02700
Fe573      Fe  0.18539204  0.07242531  0.36292315     1.65800
Fe574      Fe  0.10772874  0.02078387  0.40664579     1.73200
Fe575      Fe  0.15193970  0.97887868  0.37392543     1.54400
O576        O  0.16815598  0.99297377  0.32767054    -0.81900
O577        O  0.11879434  0.99464927  0.44287598    -0.80200
O578        O  0.17420227  0.04876903  0.31826190    -0.84400
O579        O  0.22946777  0.06263930  0.36861676    -0.79300
O580        O  0.09688644  0.94777408  0.35779013    -0.81000
O581        O  0.14167174  0.07075962  0.42873490    -0.83800
C582        C  0.23391915  0.03850797  0.38332301     0.97000
C583        C  0.17073327  0.01792596  0.30880860     1.04400
O584        O  0.14828208  0.02399392  0.38116152    -1.12800
O585        O  0.09282131  0.04704359  0.37336604    -0.75200
O586        O  0.14783803  0.09125169  0.35519582    -0.78700
O587        O  0.20681920  0.00621945  0.39001476    -0.79400
C588        C  0.11301814  0.07795661  0.35947315     0.95900
O589        O  0.19839687  0.09914676  0.40660554    -0.77300
O590        O  0.06845273  0.97090176  0.38706767    -0.82500
C591        C  0.12648961  0.96861081  0.44335198     0.98500
C592        C  0.06764981  0.94781011  0.36701383     1.04400
O593        O  0.13578950  0.95775100  0.41887184    -0.78200
C594        C  0.17563153  0.09666509  0.42793552     1.02700
Fe595      Fe  0.76496138  0.92837555  0.62234942     1.65800
Fe596      Fe  0.84454156  0.98047157  0.58124052     1.73200
Fe597      Fe  0.79939245  0.02212451  0.61261741     1.54400
O598        O  0.74473427  0.99501386  0.59535898    -0.81900
O599        O  0.88338213  0.02946465  0.60225234    -0.80200
O600        O  0.72097586  0.93871719  0.61709633    -0.84400
O601        O  0.77620916  0.95120650  0.66727759    -0.79300
O602        O  0.81670208  0.04368797  0.56800355    -0.81000
O603        O  0.85753241  0.95324040  0.61484622    -0.83800
C604        C  0.77964037  0.98194162  0.67707049     0.97000
C605        C  0.71716897  0.96283499  0.60174029     1.04400
O606        O  0.80304415  0.97710308  0.60533571    -1.12800
O607        O  0.81074666  0.93124766  0.55789229    -0.75200
O608        O  0.75284638  0.90365546  0.57790088    -0.78700
O609        O  0.78192706  0.00698645  0.65844856    -0.79400
C610        C  0.77635908  0.90632941  0.55719307     0.95900
O611        O  0.80142522  0.90795135  0.62958271    -0.77300
O612        O  0.83578489  0.00794359  0.54489920    -0.82500
C613        C  0.88377764  0.05274553  0.62187793     0.98500
C614        C  0.82743454  0.03348880  0.54398192     1.04400
O615        O  0.85432123  0.05320258  0.62986035    -0.78200
C616        C  0.83646639  0.92139801  0.62684806     1.02700
Fe617      Fe  0.83256243  0.78835551  0.36206823     1.65800
Fe618      Fe  0.86135790  0.86655364  0.40543407     1.73200
Fe619      Fe  0.77547788  0.82518219  0.37260336     1.54400
O620        O  0.77346622  0.80893729  0.32610119    -0.81900
O621        O  0.82462339  0.85539121  0.44202143    -0.80200
O622        O  0.82173834  0.80013738  0.31723954    -0.84400
O623        O  0.77745306  0.74540296  0.36710526    -0.79300
O624        O  0.80168515  0.88047891  0.35660496    -0.81000
O625        O  0.87680789  0.83194312  0.42638224    -0.83800
C626        C  0.74975192  0.74238852  0.38247284     0.97000
C627        C  0.79539185  0.80499955  0.30750859     1.04400
O628        O  0.82308535  0.82674627  0.37994941    -1.12800
O629        O  0.90121691  0.88070868  0.37116245    -0.75200
O630        O  0.88994226  0.82483726  0.35517950    -0.78700
O631        O  0.74595374  0.77031286  0.38882023    -0.79400
C632        C  0.91177779  0.85988301  0.35842814     0.95900
O633        O  0.84430792  0.77451230  0.40598709    -0.77300
O634        O  0.85202466  0.90703638  0.38749215    -0.82500
C635        C  0.79147574  0.84962643  0.44255077     0.98500
C636        C  0.83103166  0.90912703  0.36695407     1.04400
O637        O  0.77152914  0.84196430  0.41792932    -0.78200
C638        C  0.86649921  0.79748097  0.42641131     1.02700
Fe639      Fe  0.04465758  0.85792294  0.61949971     1.65800
Fe640      Fe  0.99288249  0.88362885  0.57649416     1.73200
Fe641      Fe  0.95121577  0.79687901  0.60810202     1.54400
O642        O  0.97885708  0.76984783  0.59171295    -0.81900
O643        O  0.94302558  0.87238777  0.59599273    -0.80200
O644        O  0.03480917  0.80363031  0.61414543    -0.84400
O645        O  0.02071983  0.84607746  0.66382328    -0.79300
O646        O  0.93011465  0.79208194  0.56300686    -0.81000
O647        O  0.01858313  0.92424645  0.61038871    -0.83800
C648        C  0.98979308  0.81861985  0.67323202     0.97000
C649        C  0.01098441  0.77506582  0.59882442     1.04400
O650        O  0.99620182  0.84608247  0.60122988    -1.12800
O651        O  0.04301043  0.90027369  0.55469295    -0.75200
O652        O  0.07106160  0.87136064  0.57590960    -0.78700
O653        O  0.96548303  0.79497731  0.65439627    -0.79400
C654        C  0.06873941  0.89216559  0.55511335     0.95900
O655        O  0.06393226  0.91481316  0.62697651    -0.77300
O656        O  0.96686935  0.84685692  0.53989575    -0.82500
C657        C  0.92005701  0.84975253  0.61592766     0.98500
C658        C  0.94091097  0.81288773  0.53888594     1.04400
O659        O  0.91997974  0.82033278  0.62465270    -0.78200
C660        C  0.04992002  0.93572631  0.62361107     1.02700
Fe661      Fe  0.90452547  0.79140964  0.86119761     1.65800
Fe662      Fe  0.95808187  0.87060482  0.90235223     1.73200
Fe663      Fe  0.99787688  0.82382382  0.87125170     1.54400
O664        O  0.96977681  0.76979183  0.88938351    -0.81900
O665        O  0.00809942  0.90838712  0.88212145    -0.80200
O666        O  0.91382936  0.74687175  0.86695830    -0.84400
O667        O  0.92712006  0.80191278  0.81637868    -0.79300
O668        O  0.02032660  0.84197253  0.91570493    -0.81000
O669        O  0.93222841  0.88478722  0.86822697    -0.83800
C670        C  0.95760988  0.80471637  0.80682153     0.97000
C671        C  0.93738181  0.74266414  0.88288651     1.04400
O672        O  0.95358793  0.82871153  0.87829678    -1.12800
O673        O  0.90804228  0.83810703  0.92480068    -0.75200
O674        O  0.87948805  0.77995396  0.90534365    -0.78700
O675        O  0.98202822  0.80562038  0.82549938    -0.79400
C676        C  0.88212076  0.80410891  0.92533268     0.95900
O677        O  0.88581246  0.82912195  0.85359597    -0.77300
O678        O  0.98400494  0.86019298  0.93904292    -0.82500
C679        C  0.03043745  0.90796725  0.86192483     0.98500
C680        C  0.00979584  0.85216485  0.93987568     1.04400
O681        O  0.02950088  0.87803705  0.85331728    -0.78200
C682        C  0.90022542  0.86432427  0.85608376     1.02700
Fe683      Fe  0.11406535  0.92875101  0.12053155     1.65800
Fe684      Fe  0.09014048  0.98184470  0.07670734     1.73200
Fe685      Fe  0.17524345  0.02269378  0.11146772     1.54400
O686        O  0.17680082  0.00719257  0.15712997    -0.81900
O687        O  0.12870901  0.00963279  0.04172764    -0.80200
O688        O  0.12633930  0.95137611  0.16570128    -0.84400
O689        O  0.16812535  0.93843990  0.11449751    -0.79300
O690        O  0.15013235  0.05248893  0.12852113    -0.81000
O691        O  0.07530760  0.93339820  0.05316745    -0.83800
C692        C  0.19726420  0.96305625  0.10034615     0.97000
C693        C  0.15382873  0.98205267  0.17559979     1.04400
O694        O  0.12639996  0.97770544  0.10290460    -1.12800
O695        O  0.04747265  0.95403766  0.10840872    -0.75200
O696        O  0.05744930  0.91024979  0.12833198    -0.78700
O697        O  0.20303636  0.99574965  0.09459297    -0.79400
C698        C  0.03629854  0.92366933  0.12318009     0.95900
O699        O  0.10031146  0.90275608  0.07649039    -0.77300
O700        O  0.09971755  0.03042937  0.09768316    -0.82500
C701        C  0.16233966  0.03620433  0.04249008     0.98500
C702        C  0.12086022  0.05236064  0.11894987     1.04400
O703        O  0.18166150  0.04611455  0.06741664    -0.78200
C704        C  0.08220740  0.90693984  0.05420442     1.02700
Fe705      Fe  0.18863952  0.14198924  0.86438692     1.65800
Fe706      Fe  0.10880991  0.11000247  0.90619805     1.73200
Fe707      Fe  0.15038996  0.19779823  0.87658469     1.54400
O708        O  0.20511299  0.22754111  0.89306984    -0.81900
O709        O  0.06841797  0.11809351  0.88637976    -0.80200
O710        O  0.23082229  0.19680566  0.87140937    -0.84400
O711        O  0.17792262  0.15475382  0.82004206    -0.79300
O712        O  0.13373006  0.20033699  0.92223099    -0.81000
O713        O  0.09725187  0.07115327  0.87149803    -0.83800
C714        C  0.17241663  0.18089303  0.81096627     0.97000
C715        C  0.23332785  0.22431306  0.88668854     1.04400
O716        O  0.14921643  0.14998450  0.88235810    -1.12800
O717        O  0.14404891  0.09623991  0.92858328    -0.75200
O718        O  0.20145903  0.12877897  0.90803088    -0.78700
O719        O  0.16697441  0.20144073  0.83005210    -0.79400
C720        C  0.17873651  0.10737061  0.92888634     0.95900
O721        O  0.15360938  0.08499353  0.85484253    -0.77300
O722        O  0.11635726  0.14490473  0.94349639    -0.82500
C723        C  0.06658013  0.14091895  0.86774616     0.98500
C724        C  0.12388045  0.17855644  0.94574846     1.04400
O725        O  0.09511066  0.17201920  0.86023622    -0.78200
C726        C  0.11869518  0.06236344  0.85742713     1.02700
Fe727      Fe  0.83271062  0.06960282  0.86535690     1.65800
Fe728      Fe  0.85733398  0.01665337  0.90809736     1.73200
Fe729      Fe  0.77244577  0.97538368  0.87364619     1.54400
O730        O  0.74436943  0.00131585  0.89117861    -0.81900
O731        O  0.84676826  0.96717636  0.88818573    -0.80200
O732        O  0.77829753  0.05888264  0.87141473    -0.84400
O733        O  0.82121018  0.04763581  0.82021457    -0.79300
O734        O  0.76679478  0.95173840  0.91760679    -0.81000
O735        O  0.89895919  0.04338979  0.87523153    -0.83800
C736        C  0.79416213  0.01687839  0.81011276     0.97000
C737        C  0.74963484  0.03381770  0.88578620     1.04400
O738        O  0.82086372  0.02060985  0.88236207    -1.12800
O739        O  0.87357453  0.06600818  0.93068344    -0.75200
O740        O  0.84589485  0.09511154  0.90942885    -0.78700
O741        O  0.77077418  0.99151383  0.82821581    -0.79400
C742        C  0.86613089  0.09212405  0.93037738     0.95900
O743        O  0.88951989  0.08854425  0.85774845    -0.77300
O744        O  0.81903117  0.99000074  0.94354803    -0.82500
C745        C  0.82641141  0.94603443  0.86619589     0.98500
C746        C  0.78570458  0.96269669  0.94277127     1.04400
O747        O  0.79783828  0.94656033  0.85587497    -0.78200
C748        C  0.91035665  0.07445260  0.86147849     1.02700
Fe749      Fe  0.04198230  0.20687088  0.12388879     1.65800
Fe750      Fe  0.98881586  0.12760128  0.08249365     1.73200
Fe751      Fe  0.94818923  0.17416364  0.11334919     1.54400
O752        O  0.96245414  0.19045930  0.15940914    -0.81900
O753        O  0.96267070  0.13790738  0.04591983    -0.80200
O754        O  0.01886079  0.19757019  0.16862802    -0.84400
O755        O  0.03328464  0.25156076  0.11700047    -0.79300
O756        O  0.91567606  0.11918620  0.12972608    -0.81000
O757        O  0.03867777  0.15993963  0.05994794    -0.83800
C758        C  0.00886006  0.25607747  0.10283387     0.97000
C759        C  0.98782032  0.19365694  0.17807515     1.04400
O760        O  0.99292104  0.16951432  0.10658369    -1.12800
O761        O  0.01494910  0.11337583  0.11640403    -0.75200
O762        O  0.06027899  0.16896460  0.13253203    -0.78700
O763        O  0.97615270  0.22905393  0.09706054    -0.79400
C764        C  0.04651024  0.13391230  0.12926084     0.95900
O765        O  0.06802759  0.21775533  0.08000037    -0.77300
O766        O  0.93908025  0.08957580  0.10255257    -0.82500
C767        C  0.93778422  0.14720014  0.04457473     0.98500
C768        C  0.91554742  0.08951031  0.12160462     1.04400
O769        O  0.92751084  0.15813900  0.06838705    -0.78200
C770        C  0.06504382  0.19368687  0.05973059     1.02700
Fe771      Fe  0.75773103  0.85429640  0.11917632     1.65800
Fe772      Fe  0.83682345  0.88532497  0.07715342     1.73200
Fe773      Fe  0.79591784  0.79852559  0.10847360     1.54400
O774        O  0.77932003  0.79588961  0.15503360    -0.81900
O775        O  0.82783376  0.84940586  0.04048716    -0.80200
O776        O  0.77049653  0.84409877  0.16373827    -0.84400
O777        O  0.71564978  0.79887667  0.11396021    -0.79300
O778        O  0.85119510  0.82516114  0.12489844    -0.81000
O779        O  0.80142323  0.89913203  0.05530384    -0.83800
C780        C  0.71293265  0.77144368  0.09835103     0.97000
C781        C  0.77594321  0.81820571  0.17363795     1.04400
O782        O  0.79689488  0.84597300  0.10158284    -1.12800
O783        O  0.84921347  0.92477664  0.11157699    -0.75200
O784        O  0.79261707  0.91180565  0.12669733    -0.78700
O785        O  0.74119079  0.76835796  0.09171764    -0.79400
C786        C  0.82761479  0.93425269  0.12442392     0.95900
O787        O  0.74378070  0.86548922  0.07514119    -0.77300
O788        O  0.87752347  0.87724708  0.09622493    -0.82500
C789        C  0.82151946  0.81609579  0.03909390     0.98500
C790        C  0.87964686  0.85561547  0.11602721     1.04400
O791        O  0.81286466  0.79522954  0.06314284    -0.78200
C792        C  0.76667744  0.88765400  0.05471911     1.02700
C793        C  0.84424010  0.97371523  0.13471852    -0.05700
C794        C  0.88040445  0.99176763  0.14745401    -0.33100
C795        C  0.90211071  0.03075355  0.14774308     0.36100
C796        C  0.88822058  0.05246865  0.13442200    -0.06100
C797        C  0.85053362  0.03479787  0.12525286    -0.33000
C798        C  0.82829916  0.99550503  0.12574173     0.36000
H799        H  0.89297129  0.97557678  0.15490568     0.16400
O800        O  0.93858410  0.04728043  0.15756919    -0.60500
H801        H  0.83947708  0.05104015  0.11475027     0.16400
O802        O  0.79283151  0.97881028  0.11352700    -0.60600
H803        H  0.77634947  0.97490271  0.13179718     0.43400
H804        H  0.93865349  0.05657163  0.17910257     0.43400
C805        C  0.76918677  0.94199339  0.97212634    -0.05700
C806        C  0.75008119  0.90267771  0.97197901    -0.33100
C807        C  0.74332677  0.88289659  0.00026858     0.36100
C808        C  0.75471170  0.90254556  0.02893468    -0.06100
C809        C  0.76912913  0.94130917  0.02913090    -0.33000
C810        C  0.77668384  0.96111909  0.00099959     0.36000
H811        H  0.74383585  0.88754529  0.94990258     0.16400
O812        O  0.72941029  0.84499803  0.99944564    -0.60500
H813        H  0.77866628  0.95680863  0.05099980     0.16400
O814        O  0.79441165  0.99943098  0.00196721    -0.60600
H815        H  0.77426319  0.00548754  0.99919495     0.43400
H816        H  0.75147164  0.84197421  0.99614992     0.43400
C817        C  0.88380148  0.11977320  0.95553565    -0.05700
C818        C  0.86291069  0.11736826  0.98229979    -0.33100
C819        C  0.88069123  0.12977253  0.01155806     0.36100
C820        C  0.91959179  0.14393458  0.01401100    -0.06100
C821        C  0.94070631  0.15037599  0.98658603    -0.33000
C822        C  0.92308325  0.13839891  0.95751004     0.36000
H823        H  0.83261746  0.10235901  0.98119025     0.16400
O824        O  0.85927951  0.12363454  0.03793798    -0.60500
H825        H  0.97074119  0.16214006  0.98796221     0.16400
O826        O  0.94413614  0.14139907  0.93154410    -0.60600
H827        H  0.94957231  0.12069429  0.93332002     0.43400
H828        H  0.85783950  0.14665432  0.04058816     0.43400
C829        C  0.11928142  0.19192534  0.97690105    -0.05700
C830        C  0.10608024  0.21724385  0.97906243    -0.33100
C831        C  0.09251340  0.22259001  0.00777306     0.36100
C832        C  0.09276320  0.20300529  0.03463762    -0.06100
C833        C  0.11028115  0.18156071  0.03322204    -0.33000
C834        C  0.12356646  0.17600919  0.00473183     0.36000
H835        H  0.10316833  0.23029766  0.95804600     0.16400
O836        O  0.07596367  0.24411925  0.00866422    -0.60500
H837        H  0.11046349  0.16615504  0.05375141     0.16400
O838        O  0.13804811  0.15263348  0.00399259    -0.60600
H839        H  0.16551932  0.16936174  0.00559410     0.43400
H840        H  0.04930685  0.22686517  0.00329856     0.43400
C841        C  0.02892678  0.12897537  0.85493417    -0.05700
C842        C  0.01212129  0.15080504  0.85940982    -0.33100
C843        C  0.97294083  0.13435686  0.85750333     0.36100
C844        C  0.95031453  0.09548566  0.85191024    -0.06100
C845        C  0.96772034  0.07515170  0.84353063    -0.33000
C846        C  0.00659731  0.09167949  0.84464114     0.36000
H847        H  0.02885906  0.17958014  0.86715533     0.16400
O848        O  0.95703675  0.15551877  0.86482719    -0.60500
H849        H  0.95098851  0.04550305  0.83841660     0.16400
O850        O  0.02232280  0.07001057  0.83865632    -0.60600
H851        H  0.02713786  0.07219681  0.81568484     0.43400
H852        H  0.95382571  0.16501887  0.84437626     0.43400
C853        C  0.99619401  0.90260201  0.13225835    -0.05700
C854        C  0.97846546  0.92296396  0.13943737    -0.33100
C855        C  0.93961022  0.90620926  0.13787827     0.36100
C856        C  0.91750053  0.86844041  0.12872992    -0.06100
C857        C  0.93457641  0.84673877  0.12528992    -0.33000
C858        C  0.97386991  0.86362875  0.12704449     0.36000
H859        H  0.99498365  0.95278028  0.14391332     0.16400
O860        O  0.92371897  0.92801335  0.14232554    -0.60500
H861        H  0.91797184  0.81764015  0.11836811     0.16400
O862        O  0.99027637  0.84255938  0.12107201    -0.60600
H863        H  0.98496022  0.83510303  0.09864942     0.43400
H864        H  0.91553789  0.92413371  0.16461606     0.43400
C865        C  0.17872181  0.05713714  0.01329910    -0.05700
C866        C  0.17312915  0.03737546  0.98513495    -0.33100
C867        C  0.17978384  0.05564224  0.95624858     0.36100
C868        C  0.19127610  0.09389133  0.95532974    -0.06100
C869        C  0.20084756  0.11447363  0.98343793    -0.33000
C870        C  0.19473702  0.09630265  0.01246139     0.36000
H871        H  0.16117117  0.00728898  0.98550070     0.16400
O872        O  0.17034853  0.03499162  0.92907828    -0.60500
H873        H  0.20899460  0.14379199  0.98305490     0.16400
O874        O  0.20067043  0.11637987  0.03970932    -0.60600
H875        H  0.17688187  0.11602033  0.04379412     0.43400
H876        H  0.19285608  0.03359508  0.92342205     0.43400
C877        C  0.10828540  0.07692991  0.13285682    -0.05700
C878        C  0.07154960  0.05953858  0.14458753    -0.33100
C879        C  0.05211240  0.07897189  0.14682847     0.36100
C880        C  0.06936879  0.11664794  0.13740847    -0.06100
C881        C  0.10757598  0.13523653  0.12916459    -0.33000
C882        C  0.12699548  0.11552984  0.12665432     0.36000
H883        H  0.05665342  0.02974388  0.14930460     0.16400
O884        O  0.01519633  0.05990206  0.15554484    -0.60500
H885        H  0.12135053  0.16411579  0.12152917     0.16400
O886        O  0.16241772  0.13305046  0.11429766    -0.60600
H887        H  0.17913567  0.14700268  0.13214591     0.43400
H888        H  0.01521088  0.06508671  0.17833037     0.43400
C889        C  0.85424468  0.79448728  0.95024466    -0.05700
C890        C  0.85403260  0.77376246  0.97633673    -0.33100
C891        C  0.83965633  0.77728132  0.00528610     0.36100
C892        C  0.82614852  0.80241675  0.00817125    -0.06100
C893        C  0.82220462  0.81922832  0.98097312    -0.33000
C894        C  0.83626959  0.81556248  0.95225163     0.36000
H895        H  0.86819231  0.75779471  0.97512643     0.16400
O896        O  0.84291725  0.75945201  0.03116921    -0.60500
H897        H  0.81083797  0.83771790  0.98240221     0.16400
O898        O  0.83527313  0.83532181  0.92675428    -0.60600
H899        H  0.85572670  0.86145960  0.93020019     0.43400
H900        H  0.82089411  0.73380663  0.03027104     0.43400
C901        C  0.83906506  0.92170426  0.85227039    -0.05700
C902        C  0.87596220  0.93928639  0.84109827    -0.33100
C903        C  0.89546033  0.91992424  0.83923815     0.36100
C904        C  0.87776533  0.88194251  0.84780739    -0.06100
C905        C  0.83924705  0.86313720  0.85495935    -0.33000
C906        C  0.82004524  0.88298129  0.85784603     0.36000
H907        H  0.89095005  0.96915639  0.83672303     0.16400
O908        O  0.93248740  0.93897630  0.83079482    -0.60500
H909        H  0.82500024  0.83390557  0.86158926     0.16400
O910        O  0.78405294  0.86510332  0.86902515    -0.60600
H911        H  0.78646869  0.86644756  0.89228107     0.43400
H912        H  0.94582872  0.95502840  0.84891296     0.43400
C913        C  0.02909082  0.85638231  0.97006205    -0.05700
C914        C  0.06840167  0.87549653  0.97110235    -0.33100
C915        C  0.08728943  0.88795860  0.99989810     0.36100
C916        C  0.06672250  0.88043658  0.02798549    -0.06100
C917        C  0.02768976  0.85757532  0.02708192    -0.33000
C918        C  0.00877979  0.84591205  0.99838892     0.36000
H919        H  0.08440423  0.88386862  0.94945956     0.16400
O920        O  0.12531781  0.91167747  0.99990210    -0.60500
H921        H  0.01153003  0.85235048  0.04841122     0.16400
O922        O  0.97037635  0.82589093  0.99816194    -0.60600
H923        H  0.96243420  0.84456377  0.00167742     0.43400
H924        H  0.13592564  0.89704860  0.00912889     0.43400
C925        C  0.05718485  0.94465372  0.84817771    -0.05700
C926        C  0.09550619  0.96205309  0.85510491    -0.33100
C927        C  0.11808992  0.00127273  0.85360243     0.36100
C928        C  0.10181866  0.02321804  0.84620498    -0.06100
C929        C  0.06487639  0.00525912  0.83517323    -0.33000
C930        C  0.04282279  0.96633881  0.83573219     0.36000
H931        H  0.10705433  0.94577357  0.86462047     0.16400
O932        O  0.15456672  0.01784659  0.86335083    -0.60500
H933        H  0.05203859  0.02153474  0.82874267     0.16400
O934        O  0.00579571  0.94993670  0.82765042    -0.60600
H935        H  0.00414947  0.94006859  0.80628234     0.43400
H936        H  0.16944770  0.02361264  0.84373946     0.43400
C937        C  0.98122242  0.81398977  0.70739242    -0.05700
C938        C  0.01038279  0.83137613  0.72931238    -0.33100
C939        C  0.00299965  0.82825503  0.76161718     0.36100
C940        C  0.96578988  0.80766036  0.77269987    -0.06100
C941        C  0.93652040  0.79092535  0.75084741    -0.33000
C942        C  0.94391173  0.79371858  0.71850267     0.36000
H943        H  0.03913708  0.84764261  0.72143788     0.16400
O944        O  0.03229525  0.84721166  0.78209277    -0.60500
H945        H  0.90775309  0.77551608  0.75883685     0.16400
O946        O  0.91428035  0.77801699  0.69799435    -0.60600
H947        H  0.90683893  0.75122036  0.69668855     0.43400
H948        H  0.04403535  0.83152800  0.78406092     0.43400
C949        C  0.77953611  0.81404330  0.20808905    -0.05700
C950        C  0.79325853  0.79098744  0.21875696    -0.33100
C951        C  0.79892182  0.78791101  0.25088109     0.36100
C952        C  0.79008745  0.80738817  0.27324123    -0.06100
C953        C  0.77617659  0.83020351  0.26268781    -0.33000
C954        C  0.77110834  0.83383006  0.23060844     0.36000
H955        H  0.80025538  0.77559920  0.20212716     0.16400
O956        O  0.81197658  0.76486710  0.26016366    -0.60500
H957        H  0.76972730  0.84593220  0.27942389     0.16400
O958        O  0.75841881  0.85728897  0.22168362    -0.60600
H959        H  0.73075387  0.84145498  0.22142432     0.43400
H960        H  0.83954932  0.78001660  0.25781693     0.43400
C961        C  0.88293754  0.78599620  0.45139193    -0.05700
C962        C  0.92207439  0.80370340  0.45179036    -0.33100
C963        C  0.94142739  0.81017107  0.48010563     0.36100
C964        C  0.92153682  0.79795303  0.50857447    -0.06100
C965        C  0.88225638  0.77583788  0.50770440    -0.33000
C966        C  0.86286145  0.77003635  0.47923862     0.36000
H967        H  0.93785846  0.81643870  0.43056810     0.16400
O968        O  0.97979985  0.83029687  0.47991082    -0.60500
H969        H  0.86649090  0.76615061  0.52939950     0.16400
O970        O  0.82460409  0.75320531  0.47960196    -0.60600
H971        H  0.81539191  0.72704966  0.47281563     0.43400
H972        H  0.98659634  0.85676689  0.47705113     0.43400
C973        C  0.78207031  0.99014996  0.71134615    -0.05700
C974        C  0.79342407  0.02688889  0.72148304    -0.33100
C975        C  0.79748614  0.03620509  0.75348118     0.36100
C976        C  0.78991068  0.00863066  0.77609405    -0.06100
C977        C  0.77823013  0.97194602  0.76614617    -0.33000
C978        C  0.77467495  0.96266964  0.73419897     0.36000
H979        H  0.79962599  0.04877973  0.70456062     0.16400
O980        O  0.80850943  0.07218975  0.76233390    -0.60500
H981        H  0.77252031  0.95036863  0.78328472     0.16400
O982        O  0.76351016  0.92654224  0.72574771    -0.60600
H983        H  0.78675594  0.92517284  0.72549302     0.43400
H984        H  0.78495278  0.07227818  0.76638187     0.43400
C985        C  0.76534493  0.87996683  0.53081408    -0.05700
C986        C  0.78075687  0.85660772  0.52992470    -0.33100
C987        C  0.78648258  0.84367664  0.50125948     0.36100
C988        C  0.77667841  0.85408823  0.47289787    -0.06100
C989        C  0.75727859  0.87381859  0.47407858    -0.33000
C990        C  0.75182578  0.88701886  0.50287885     0.36000
H991        H  0.79181957  0.85147981  0.55123745     0.16400
O992        O  0.80449052  0.82350371  0.50107533    -0.60500
H993        H  0.74953097  0.88206558  0.45249651     0.16400
O994        O  0.73779353  0.91075294  0.50299880    -0.60600
H995        H  0.71035107  0.89428033  0.50539335     0.43400
H996        H  0.78426365  0.79694052  0.49971579     0.43400
C997        C  0.85333100  0.89818592  0.63469996    -0.05700
C998        C  0.83570885  0.86075243  0.62428879    -0.33100
C999        C  0.85604176  0.84203783  0.62142472     0.36100
C1000       C  0.89416015  0.86062039  0.62959036    -0.06100
C1001       C  0.91022752  0.89608138  0.64363404    -0.33000
C1002       C  0.89035679  0.91505735  0.64584345     0.36000
H1003       H  0.80737499  0.84737271  0.61526267     0.16400
O1004       O  0.83979588  0.80771359  0.60702746    -0.60500
H1005       H  0.93958764  0.91070123  0.65005709     0.16400
O1006       O  0.90819743  0.95107883  0.65695537    -0.60600
H1007       H  0.92647509  0.96620513  0.64036677     0.43400
H1008       H  0.83058999  0.78934547  0.62447321     0.43400
C1009       C  0.16826432  0.00937908  0.27462461    -0.05700
C1010       C  0.15054050  0.97172829  0.26470441    -0.33100
C1011       C  0.14600288  0.96221470  0.23271225     0.36100
C1012       C  0.15936206  0.99048857  0.20979414    -0.06100
C1013       C  0.17797780  0.02814652  0.21970457    -0.33000
C1014       C  0.18222123  0.03767601  0.25167275     0.36000
H1015       H  0.13949451  0.94934559  0.28183784     0.16400
O1016       O  0.12851494  0.92521908  0.22420816    -0.60500
H1017       H  0.18870420  0.05051959  0.20256359     0.16400
O1018       O  0.20086976  0.07472834  0.26013908    -0.60600
H1019       H  0.18245917  0.08314818  0.25742755     0.43400
H1020       H  0.14879884  0.91915787  0.22275204     0.43400
C1021       C  0.09665179  0.90945909  0.53014442    -0.05700
C1022       C  0.11787756  0.94862482  0.53026198    -0.33100
C1023       C  0.13078051  0.96843410  0.50214003     0.36100
C1024       C  0.12245079  0.94899531  0.47336173    -0.06100
C1025       C  0.10554783  0.90978342  0.47365948    -0.33000
C1026       C  0.09234959  0.88993203  0.50192667     0.36000
H1027       H  0.12107446  0.96397688  0.55184864     0.16400
O1028       O  0.14896990  0.00673669  0.50282770    -0.60500
H1029       H  0.09943952  0.89435508  0.45175198     0.16400
O1030       O  0.07228849  0.85157652  0.50132611    -0.60600
H1031       H  0.04576279  0.84481396  0.49930182     0.43400
H1032       H  0.17511370  0.01466701  0.50903463     0.43400
C1033       C  0.95185172  0.87732671  0.34992310    -0.05700
C1034       C  0.97052875  0.91426940  0.33893867    -0.33100
C1035       C  0.00945694  0.93612793  0.34064993     0.36100
C1036       C  0.03044160  0.92140860  0.35397193    -0.06100
C1037       C  0.01237983  0.88331144  0.36169974    -0.33000
C1038       C  0.97320906  0.86106820  0.35938066     0.36000
H1039       H  0.95470355  0.92714254  0.33126680     0.16400
O1040       O  0.02642515  0.97317015  0.33244323    -0.60500
H1041       H  0.02810857  0.87170198  0.37225364     0.16400
O1042       O  0.95596124  0.82500046  0.37020971    -0.60600
H1043       H  0.95176581  0.80936736  0.35125016     0.43400
H1044       H  0.03912177  0.97505566  0.31216898     0.43400
C1045       C  0.17090103  0.18728998  0.77679983    -0.05700
C1046       C  0.15054402  0.20402137  0.76631784    -0.33100
C1047       C  0.14606606  0.20806851  0.73418245     0.36100
C1048       C  0.16262838  0.19586055  0.71163631    -0.06100
C1049       C  0.18405328  0.18027833  0.72222883    -0.33000
C1050       C  0.18817529  0.17588572  0.75434037     0.36000
H1051       H  0.13704492  0.21313724  0.78309273     0.16400
O1052       O  0.12573222  0.22433098  0.72521162    -0.60500
H1053       H  0.19715773  0.17062597  0.70554901     0.16400
O1054       O  0.20891612  0.16010110  0.76339965    -0.60600
H1055       H  0.23494317  0.18132417  0.76529175     0.43400
H1056       H  0.09918326  0.20405411  0.72632800     0.43400
C1057       C  0.18697986  0.12440612  0.45330688    -0.05700
C1058       C  0.16901799  0.14543675  0.45449017    -0.33100
C1059       C  0.16350240  0.15845571  0.48317711     0.36100
C1060       C  0.17571534  0.15011418  0.51130234    -0.06100
C1061       C  0.19808853  0.13350110  0.50963286    -0.33000
C1062       C  0.20357697  0.12042372  0.48075827     0.36000
H1063       H  0.15588172  0.14848401  0.43354381     0.16400
O1064       O  0.14338061  0.17651873  0.48373092    -0.60500
H1065       H  0.20830372  0.12745882  0.53098182     0.16400
O1066       O  0.22210433  0.10076975  0.48010311    -0.60600
H1067       H  0.20231490  0.07409201  0.48144672     0.43400
H1068       H  0.16237957  0.20354239  0.48373776     0.43400
C1069       C  0.99962208  0.12356212  0.63794104    -0.05700
C1070       C  0.98154293  0.08625357  0.64792970    -0.33100
C1071       C  0.94252994  0.06442088  0.64744944     0.36100
C1072       C  0.92088503  0.07912047  0.63550587    -0.06100
C1073       C  0.93846322  0.11760794  0.62936850    -0.33000
C1074       C  0.97770415  0.14009495  0.63132296     0.36000
H1075       H  0.99776050  0.07320315  0.65393282     0.16400
O1076       O  0.92586739  0.02746644  0.65561605    -0.60500
H1077       H  0.92228921  0.12953918  0.62038864     0.16400
O1078       O  0.99438662  0.17704603  0.62307208    -0.60600
H1079       H  0.99801182  0.19067759  0.64316267     0.43400
H1080       H  0.91959119  0.02668585  0.67821748     0.43400
C1081       C  0.07182620  0.97588537  0.63242276    -0.05700
C1082       C  0.10997402  0.99702263  0.62423389    -0.33100
C1083       C  0.12814593  0.03631204  0.62223129     0.36100
C1084       C  0.10835502  0.05480216  0.62934816    -0.06100
C1085       C  0.07164011  0.03386506  0.64087121    -0.33000
C1086       C  0.05338116  0.99484457  0.64240493     0.36000
H1087       H  0.12460297  0.98298505  0.61623630     0.16400
O1088       O  0.16378536  0.05586771  0.61037124    -0.60500
H1089       H  0.05593073  0.04766558  0.64625277     0.16400
O1090       O  0.01640786  0.97534307  0.65100756    -0.60600
H1091       H  0.01658740  0.97418470  0.67429485     0.43400
H1092       H  0.16079056  0.05372795  0.58717996     0.43400
C1093       C  0.96599910  0.18759710  0.27762074    -0.05700
C1094       C  0.93640429  0.16891835  0.25625637    -0.33100
C1095       C  0.94311735  0.17098307  0.22387389     0.36100
C1096       C  0.98005837  0.19203754  0.21217547    -0.06100
C1097       C  0.00960933  0.21085172  0.23343208    -0.33000
C1098       C  0.00291081  0.20910714  0.26579554     0.36000
H1099       H  0.90791242  0.15220688  0.26464535     0.16400
O1100       O  0.91334864  0.15141495  0.20396327    -0.60500
H1101       H  0.03811645  0.22706617  0.22495117     0.16400
O1102       O  0.03299568  0.22724476  0.28563263    -0.60600
H1103       H  0.03827762  0.25340690  0.28664632     0.43400
H1104       H  0.91136367  0.12668032  0.20121420     0.43400
C1105       C  0.83189239  0.05302498  0.51392508    -0.05700
C1106       C  0.84762240  0.09210697  0.51367905    -0.33100
C1107       C  0.86009783  0.11212078  0.48543893     0.36100
C1108       C  0.85582983  0.09280600  0.45710288    -0.06100
C1109       C  0.83587625  0.05357983  0.45701304    -0.33000
C1110       C  0.82462697  0.03365813  0.48517860     0.36000
H1111       H  0.85344916  0.10741808  0.53562911     0.16400
O1112       O  0.88076098  0.15043733  0.48635439    -0.60500
H1113       H  0.83302433  0.03845265  0.43537142     0.16400
O1114       O  0.80828129  0.99541693  0.48449037    -0.60600
H1115       H  0.82910586  0.99048268  0.48101661     0.43400
H1116       H  0.86325372  0.15890710  0.47979068     0.43400
C1117       C  0.03247271  0.20536604  0.47450877    -0.05700
C1118       C  0.01200210  0.19553828  0.50258985    -0.33100
C1119       C  0.02996925  0.20042632  0.53142129     0.36100
C1120       C  0.06897336  0.21574630  0.53249998    -0.06100
C1121       C  0.08992997  0.22942194  0.50479507    -0.33000
C1122       C  0.07189394  0.22452516  0.47577381     0.36000
H1123       H  0.98169580  0.18118852  0.50199949     0.16400
O1124       O  0.00879987  0.18636810  0.55809958    -0.60500
H1125       H  0.11981954  0.24008523  0.50518014     0.16400
O1126       O  0.09262997  0.23388253  0.44865687    -0.60600
H1127       H  0.10242395  0.26104952  0.44590770     0.43400
H1128       H  0.99993974  0.15919270  0.55786073     0.43400
C1129       C  0.87806294  0.02598675  0.35353670    -0.05700
C1130       C  0.89748282  0.00811834  0.34374686    -0.33100
C1131       C  0.88047943  0.96915156  0.34455132     0.36100
C1132       C  0.84332018  0.94715407  0.35513190    -0.06100
C1133       C  0.82243704  0.96456781  0.36157161    -0.33000
C1134       C  0.83951760  0.00382805  0.36058305     0.36000
H1135       H  0.92685726  0.02449302  0.33773159     0.16400
O1136       O  0.90121000  0.95277903  0.33700300    -0.60500
H1137       H  0.79399154  0.94811326  0.37012470     0.16400
O1138       O  0.81949986  0.02019479  0.37024175    -0.60600
H1139       H  0.80937734  0.02466461  0.35064970     0.43400
H1140       H  0.91779694  0.95740088  0.35535231     0.43400
C1141       C  0.09539301  0.10026133  0.35064210    -0.05700
C1142       C  0.05750963  0.08149954  0.34210846    -0.33100
C1143       C  0.03685830  0.09971885  0.34320699     0.36100
C1144       C  0.05363564  0.13706893  0.35378803    -0.06100
C1145       C  0.09239058  0.15719438  0.35888083    -0.33000
C1146       C  0.11344990  0.13912684  0.35691126     0.36000
H1147       H  0.04317406  0.05184783  0.33678981     0.16400
O1148       O  0.99914677  0.07947140  0.33733700    -0.60500
H1149       H  0.10568635  0.18580518  0.36726259     0.16400
O1150       O  0.15055698  0.15860367  0.36504532    -0.60600
H1151       H  0.16408574  0.16925221  0.34504461     0.43400
H1152       H  0.99585876  0.08810140  0.31648443     0.43400
C1153       C  0.45131621  0.61076725  0.14002776    -0.05700
C1154       C  0.42970807  0.57153735  0.14072481    -0.33100
C1155       C  0.41584367  0.55277502  0.16932494     0.36100
C1156       C  0.42437041  0.57335004  0.19750352    -0.06100
C1157       C  0.44956772  0.61198581  0.19703942    -0.33000
C1158       C  0.46279852  0.63082508  0.16850513     0.36000
H1159       H  0.42049849  0.55579086  0.11894755     0.16400
O1160       O  0.39014117  0.51521281  0.16906201    -0.60500
H1161       H  0.45589483  0.62813196  0.21857576     0.16400
O1162       O  0.48533852  0.66904101  0.16852531    -0.60600
H1163       H  0.46833543  0.67901604  0.17225742     0.43400
H1164       H  0.40481685  0.50274121  0.17313491     0.43400
C1165       C  0.67534381  0.74370042  0.08632648    -0.05700
C1166       C  0.66916946  0.73954496  0.05368949    -0.33100
C1167       C  0.63263763  0.72204320  0.04146374     0.36100
C1168       C  0.60166890  0.70769637  0.06194450    -0.06100
C1169       C  0.60781035  0.70890274  0.09449453    -0.33000
C1170       C  0.64429632  0.72705715  0.10671824     0.36000
H1171       H  0.69269740  0.75251051  0.03765097     0.16400
O1172       O  0.62757081  0.72125944  0.00953781    -0.60500
H1173       H  0.58432140  0.69831777  0.11056928     0.16400
O1174       O  0.64933403  0.73055968  0.13867992    -0.60600
H1175       H  0.65326796  0.70975571  0.14496937     0.43400
H1176       H  0.62120936  0.69575548  0.00286153     0.43400
C1177       C  0.21552360  0.45764798  0.12136293    -0.05700
C1178       C  0.19466563  0.44093976  0.14861435    -0.33100
C1179       C  0.21276323  0.44601465  0.17764847     0.36100
C1180       C  0.25204463  0.46886227  0.17948892    -0.06100
C1181       C  0.27282649  0.48212677  0.15169985    -0.33000
C1182       C  0.25482942  0.47628053  0.12275669     0.36000
H1183       H  0.16440396  0.42722073  0.14797181     0.16400
O1184       O  0.19163324  0.43246903  0.20440872    -0.60500
H1185       H  0.30307448  0.49908924  0.15264062     0.16400
O1186       O  0.27583890  0.49276274  0.09641596    -0.60600
H1187       H  0.28224440  0.47434282  0.08799519     0.43400
H1188       H  0.18740195  0.40680136  0.20688553     0.43400
C1189       C  0.35867408  0.58818759  0.02178479    -0.05700
C1190       C  0.33860161  0.60464840  0.01015900    -0.33100
C1191       C  0.29953908  0.58420492  0.00806811     0.36100
C1192       C  0.27983705  0.54639041  0.01719695    -0.06100
C1193       C  0.30026072  0.52874391  0.02505601    -0.33000
C1194       C  0.33949820  0.54951458  0.02773988     0.36000
H1195       H  0.35305238  0.63437260  0.00518580     0.16400
O1196       O  0.28069362  0.60190904  0.99865133    -0.60500
H1197       H  0.28563411  0.49968509  0.03218368     0.16400
O1198       O  0.35812209  0.53283844  0.03993261    -0.60600
H1199       H  0.36261697  0.52058794  0.02175878     0.43400
H1200       H  0.28209216  0.61773712  0.01660560     0.43400
C1201       C  0.02028865  0.29438486  0.09174513    -0.05700
C1202       C  0.04188539  0.32520970  0.11146189    -0.33100
C1203       C  0.05882251  0.36188113  0.09987927     0.36100
C1204       C  0.05519565  0.36828412  0.06790231    -0.06100
C1205       C  0.03252141  0.33769125  0.04839385    -0.33000
C1206       C  0.01474882  0.30096346  0.06018723     0.36000
H1207       H  0.04681015  0.32075229  0.13567145     0.16400
O1208       O  0.08163216  0.39108983  0.11933262    -0.60500
H1209       H  0.02996204  0.34216850  0.02364328     0.16400
O1210       O  0.99425336  0.27160935  0.04010741    -0.60600
H1211       H  0.01232887  0.26491670  0.03132797     0.43400
H1212       H  0.06575771  0.40100486  0.12721468     0.43400
C1213       C  0.17912760  0.56150164  0.30288385    -0.05700
C1214       C  0.16506697  0.52626078  0.28860976    -0.33100
C1215       C  0.18704342  0.50928449  0.28679899     0.36100
C1216       C  0.22333973  0.52750729  0.29960548    -0.06100
C1217       C  0.23546013  0.56049833  0.31706574    -0.33000
C1218       C  0.21342190  0.57726905  0.31904512     0.36000
H1219       H  0.13875929  0.51377023  0.27597803     0.16400
O1220       O  0.17492135  0.47770637  0.26881727    -0.60500
H1221       H  0.26338082  0.57489197  0.32702163     0.16400
O1222       O  0.22701611  0.61064360  0.33464186    -0.60600
H1223       H  0.21374331  0.60419936  0.35512457     0.43400
H1224       H  0.16132743  0.45658064  0.28360921     0.43400
C1225       C  0.10276619  0.51551463  0.14226047    -0.05700
C1226       C  0.07885371  0.53038506  0.14408259    -0.33100
C1227       C  0.07263671  0.54268410  0.17300341     0.36100
C1228       C  0.09021647  0.53968905  0.20018015    -0.06100
C1229       C  0.10908601  0.51955647  0.19895124    -0.33000
C1230       C  0.11593129  0.50794323  0.17017332     0.36000
H1231       H  0.06808717  0.53590666  0.12280479     0.16400
O1232       O  0.05400530  0.56223151  0.17366236    -0.60500
H1233       H  0.12258695  0.51696835  0.21984050     0.16400
O1234       O  0.13733900  0.49121212  0.16935154    -0.60600
H1235       H  0.16347749  0.51170092  0.17275400     0.43400
H1236       H  0.02854699  0.54416906  0.18142586     0.43400
C1237       C  0.33101584  0.78210319  0.30520352    -0.05700
C1238       C  0.31277571  0.74348536  0.31049447    -0.33100
C1239       C  0.27392648  0.72152928  0.30774165     0.36100
C1240       C  0.25240136  0.73804805  0.29993748    -0.06100
C1241       C  0.26999199  0.77718265  0.29876469    -0.33000
C1242       C  0.30918046  0.79931999  0.30158597     0.36000
H1243       H  0.32891964  0.72975602  0.31384062     0.16400
O1244       O  0.25734413  0.68343979  0.31047521    -0.60500
H1245       H  0.25392856  0.79035547  0.29269473     0.16400
O1246       O  0.32599255  0.83710268  0.29666659    -0.60600
H1247       H  0.32957512  0.84822497  0.31797021     0.43400
H1248       H  0.26372866  0.67488154  0.29084258     0.43400
C1249       C  0.52252456  0.78626477  0.12236693    -0.05700
C1250       C  0.53383917  0.77666078  0.15019144    -0.33100
C1251       C  0.52873089  0.78925916  0.17940094     0.36100
C1252       C  0.51140725  0.81104878  0.18081045    -0.06100
C1253       C  0.50383537  0.82382153  0.15284933    -0.33000
C1254       C  0.50950328  0.81173116  0.12371567     0.36000
H1255       H  0.54280036  0.75617926  0.14956020     0.16400
O1256       O  0.53605630  0.77605015  0.20640601    -0.60500
H1257       H  0.49094078  0.84099810  0.15364988     0.16400
O1258       O  0.49844242  0.82170016  0.09681706    -0.60600
H1259       H  0.47106726  0.80422574  0.09529985     0.43400
H1260       H  0.56253648  0.79430804  0.21149478     0.43400
C1261       C  0.40788019  0.64366148  0.30418062    -0.05700
C1262       C  0.39052514  0.66272471  0.31607636    -0.33100
C1263       C  0.40907755  0.70180691  0.31574194     0.36100
C1264       C  0.44514658  0.72249513  0.30251746    -0.06100
C1265       C  0.46425568  0.70382603  0.29418002    -0.33000
C1266       C  0.44595719  0.66454274  0.29527660     0.36000
H1267       H  0.36149037  0.64725944  0.32338385     0.16400
O1268       O  0.38999596  0.71941355  0.32476390    -0.60500
H1269       H  0.49180389  0.71924957  0.28365368     0.16400
O1270       O  0.46388978  0.64691304  0.28349868    -0.60600
H1271       H  0.47586933  0.64267427  0.30197703     0.43400
H1272       H  0.39607744  0.72541616  0.34735252     0.43400
C1273       C  0.26051618  0.91436063  0.06489323    -0.05700
C1274       C  0.25620548  0.91653343  0.09746049    -0.33100
C1275       C  0.23763320  0.93445366  0.10951564     0.36100
C1276       C  0.22400342  0.95160626  0.08903658    -0.06100
C1277       C  0.23065463  0.95168640  0.05661563    -0.33000
C1278       C  0.24800917  0.93256678  0.04447628     0.36000
H1279       H  0.26484877  0.90198379  0.11347473     0.16400
O1280       O  0.23101808  0.93320256  0.14122682    -0.60500
H1281       H  0.21984901  0.96415382  0.04044987     0.16400
O1282       O  0.25158531  0.93079391  0.01253435    -0.60600
H1283       H  0.22720864  0.90975350  0.00529810     0.43400
H1284       H  0.25346914  0.95528564  0.15009115     0.43400
C1285       C  0.20246676  0.68655317  0.01485410    -0.05700
C1286       C  0.16612485  0.66720905  0.02759642    -0.33100
C1287       C  0.14713728  0.62811641  0.03081135     0.36100
C1288       C  0.16430514  0.60804164  0.02066778    -0.06100
C1289       C  0.19849467  0.62697074  0.00449355    -0.33000
C1290       C  0.21755233  0.66590793  0.00151428     0.36000
H1291       H  0.15414146  0.68262851  0.03818754     0.16400
O1292       O  0.11434882  0.61058679  0.04750550    -0.60500
H1293       H  0.21210991  0.61183725  0.99669214     0.16400
O1294       O  0.25240160  0.68372166  0.98807997    -0.60600
H1295       H  0.24806199  0.68688205  0.96565148     0.43400
H1296       H  0.09430459  0.60259420  0.03151256     0.43400
C1297       C  0.16181622  0.71481935  0.17772202    -0.05700
C1298       C  0.17927757  0.75405684  0.17640284    -0.33100
C1299       C  0.19101571  0.77277142  0.14749549     0.36100
C1300       C  0.18453696  0.75211034  0.11958929    -0.06100
C1301       C  0.16293442  0.71293589  0.12066767    -0.33000
C1302       C  0.15157393  0.69424436  0.14941805     0.36000
H1303       H  0.18684079  0.77036586  0.19790403     0.16400
O1304       O  0.21217177  0.81109125  0.14707746    -0.60500
H1305       H  0.15817673  0.69668852  0.09936248     0.16400
O1306       O  0.13290694  0.65587542  0.14963630    -0.60600
H1307       H  0.10614757  0.64807713  0.15232147     0.43400
H1308       H  0.23839131  0.81704822  0.15004501     0.43400
C1309       C  0.39314091  0.86961935  0.19857428    -0.05700
C1310       C  0.41359362  0.88715413  0.17140755    -0.33100
C1311       C  0.39541216  0.88100350  0.14234048     0.36100
C1312       C  0.35628689  0.85686996  0.14038358    -0.06100
C1313       C  0.33566587  0.84233448  0.16814871    -0.33000
C1314       C  0.35382146  0.84877362  0.19711709     0.36000
H1315       H  0.44390883  0.90239165  0.17213116     0.16400
O1316       O  0.41653040  0.89571744  0.11570748    -0.60500
H1317       H  0.30557448  0.82405677  0.16717591     0.16400
O1318       O  0.33330747  0.83064519  0.22329619    -0.60600
H1319       H  0.32376368  0.84672908  0.23142551     0.43400
H1320       H  0.42269768  0.87666663  0.10845404     0.43400
C1321       C  0.42910836  0.76435064  0.01492843    -0.05700
C1322       C  0.39139804  0.74414555  0.00598051    -0.33100
C1323       C  0.36927218  0.76077219  0.00673274     0.36100
C1324       C  0.38434605  0.79787790  0.01748288    -0.06100
C1325       C  0.42309168  0.81961453  0.02249388    -0.33000
C1326       C  0.44566275  0.80313442  0.02073462     0.36000
H1327       H  0.37825120  0.71448273  0.00092843     0.16400
O1328       O  0.33179223  0.73921857  0.00034533    -0.60500
H1329       H  0.43521786  0.84820107  0.03069831     0.16400
O1330       O  0.48272970  0.82402678  0.02870756    -0.60600
H1331       H  0.49630465  0.83160157  0.00838513     0.43400
H1332       H  0.32960079  0.74175563  0.97737635     0.43400
C1333       C  0.49651523  0.86227934  0.37783449    -0.05700
C1334       C  0.48292243  0.87807564  0.39955364    -0.33100
C1335       C  0.48592540  0.87412470  0.43194883     0.36100
C1336       C  0.50283506  0.85403165  0.44328162    -0.06100
C1337       C  0.51654353  0.83838930  0.42158600    -0.33000
C1338       C  0.51378116  0.84252377  0.38924298     0.36000
H1339       H  0.46945730  0.89317407  0.39143614     0.16400
O1340       O  0.47124211  0.88918885  0.45224962    -0.60500
H1341       H  0.52932773  0.82263174  0.42967814     0.16400
O1342       O  0.52629906  0.82530942  0.36905080    -0.60600
H1343       H  0.55368297  0.84262951  0.36738408     0.43400
H1344       H  0.44452818  0.86970106  0.45463500     0.43400
C1345       C  0.67938899  0.95131526  0.58919847    -0.05700
C1346       C  0.64893899  0.94091059  0.60959816    -0.33100
C1347       C  0.61202705  0.92355588  0.59796212     0.36100
C1348       C  0.60501192  0.91508217  0.56562397    -0.06100
C1349       C  0.63563978  0.92642870  0.54526127    -0.33000
C1350       C  0.67247693  0.94484281  0.55672505     0.36000
H1351       H  0.65368275  0.94501081  0.63471911     0.16400
O1352       O  0.58288257  0.91177134  0.61875363    -0.60500
H1353       H  0.63087390  0.91963626  0.52044305     0.16400
O1354       O  0.70132602  0.95321076  0.53631849    -0.60600
H1355       H  0.71119912  0.97970890  0.53039429     0.43400
H1356       H  0.57820205  0.93295291  0.62048449     0.43400
C1357       C  0.49093280  0.65547933  0.87628224    -0.05700
C1358       C  0.51323038  0.69260505  0.88693034    -0.33100
C1359       C  0.51760024  0.70118866  0.91906277     0.46900
C1360       C  0.49964875  0.67246174  0.94139125    -0.06100
C1361       C  0.47826609  0.63525268  0.93079475    -0.33000
C1362       C  0.47359148  0.62666409  0.89869754     0.36000
H1363       H  0.52688339  0.71537876  0.87029647     0.16400
O1364       O  0.53931832  0.73777873  0.92827517    -0.60500
H1365       H  0.46419411  0.61257015  0.94746362     0.16400
O1366       O  0.45232059  0.58994225  0.88964252    -0.60600
H1367       H  0.42605304  0.58439038  0.89042993     0.43400
H1368       H  0.56508268  0.74202459  0.92980928     0.43400
C1369       C  0.51404622  0.75251960  0.61968271    -0.05700
C1370       C  0.49128045  0.71350148  0.62072152    -0.33100
C1371       C  0.48572063  0.69412290  0.64875204     0.36100
C1372       C  0.50307153  0.71384300  0.67651681    -0.06100
C1373       C  0.52976794  0.75225469  0.67466888    -0.33000
C1374       C  0.53504250  0.77179251  0.64635419     0.36000
H1375       H  0.47444582  0.69844671  0.60051350     0.16400
O1376       O  0.46043306  0.65643642  0.64932472    -0.60500
H1377       H  0.54373773  0.76778541  0.69574430     0.16400
O1378       O  0.55774134  0.80995121  0.64581792    -0.60600
H1379       H  0.54199135  0.82003931  0.65364552     0.43400
H1380       H  0.47574217  0.64421511  0.64815670     0.43400
C1381       C  0.11920822  0.67112080  0.44157688    -0.05700
C1382       C  0.13587742  0.70055878  0.41990351    -0.33100
C1383       C  0.13196192  0.69360236  0.38750955     0.36100
C1384       C  0.11150720  0.65651765  0.37606929    -0.06100
C1385       C  0.09456801  0.62704567  0.39766046    -0.33000
C1386       C  0.09813904  0.63399364  0.43007288     0.36000
H1387       H  0.15233363  0.72920281  0.42804384     0.16400
O1388       O  0.15003247  0.72323730  0.36729712    -0.60500
H1389       H  0.07870209  0.59838828  0.38941424     0.16400
O1390       O  0.08154395  0.60408790  0.45018868    -0.60600
H1391       H  0.10016477  0.59595966  0.45304790     0.43400
H1392       H  0.13312460  0.73355999  0.36505268     0.43400
C1393       C  0.28484228  0.76570830  0.51424676    -0.05700
C1394       C  0.30464862  0.80304980  0.52488044    -0.33100
C1395       C  0.34390659  0.82215272  0.52778355     0.36100
C1396       C  0.36379914  0.80420640  0.51915973    -0.06100
C1397       C  0.34434308  0.76890694  0.50467480    -0.33000
C1398       C  0.30530621  0.74977024  0.50208136     0.36000
H1399       H  0.28952501  0.81609253  0.53395282     0.16400
O1400       O  0.36184434  0.85621212  0.54263510    -0.60500
H1401       H  0.35921280  0.75465532  0.49789700     0.16400
O1402       O  0.28729311  0.71423582  0.48995606    -0.60600
H1403       H  0.28115189  0.71699673  0.46795339     0.43400
H1404       H  0.36988124  0.87490240  0.52549919     0.43400
C1405       C  0.05776398  0.70923825  0.56519549    -0.05700
C1406       C  0.03783847  0.71940198  0.54467498    -0.33100
C1407       C  0.01983341  0.73826126  0.55587560     0.36100
C1408       C  0.02244061  0.74816972  0.58793059    -0.06100
C1409       C  0.04118177  0.73668032  0.60861302    -0.33000
C1410       C  0.05819566  0.71683565  0.59755437     0.36000
H1411       H  0.03769615  0.71422418  0.51966524     0.16400
O1412       O  0.00211441  0.74927691  0.53490518    -0.60500
H1413       H  0.04384168  0.74436720  0.63325461     0.16400
O1414       O  0.07828493  0.70824767  0.61809146    -0.60600
H1415       H  0.06113194  0.68183027  0.62412109     0.43400
H1416       H  0.02161809  0.77441542  0.52766263     0.43400
C1417       C  0.31666531  0.86038445  0.87693371    -0.05700
C1418       C  0.27917439  0.83983799  0.88694789    -0.33100
C1419       C  0.26990683  0.83472578  0.91893583     0.36100
C1420       C  0.29827169  0.85096779  0.94188067    -0.06100
C1421       C  0.33581387  0.87197374  0.93183891    -0.33000
C1422       C  0.34509866  0.87653686  0.89979662     0.36000
H1423       H  0.25675816  0.82686365  0.86985575     0.16400
O1424       O  0.23293702  0.81427286  0.92738421    -0.60500
H1425       H  0.35829915  0.88444787  0.94890018     0.16400
O1426       O  0.38203410  0.89678337  0.89120253    -0.60600
H1427       H  0.38726299  0.92276098  0.88836783     0.43400
H1428       H  0.22672474  0.78779872  0.92675404     0.43400
C1429       C  0.42821684  0.88232110  0.69683015    -0.05700
C1430       C  0.45257440  0.86806755  0.69682949    -0.33100
C1431       C  0.46475054  0.86058651  0.66858519     0.36100
C1432       C  0.45287146  0.86787180  0.63989886    -0.06100
C1433       C  0.43255193  0.88667133  0.63995273    -0.33000
C1434       C  0.41991864  0.89366024  0.66831798     0.36000
H1435       H  0.45867293  0.85870900  0.71857687     0.16400
O1436       O  0.48566974  0.84338085  0.66923292    -0.60500
H1437       H  0.42341956  0.89265872  0.61796709     0.16400
O1438       O  0.39535064  0.90668389  0.66763494    -0.60600
H1439       H  0.41116880  0.93421248  0.66981632     0.43400
H1440       H  0.51206448  0.86406396  0.66893387     0.43400
C1441       C  0.40946079  0.79143897  0.79920117    -0.05700
C1442       C  0.39147788  0.75535026  0.81201539    -0.33100
C1443       C  0.40844334  0.73346504  0.81124339     0.36100
C1444       C  0.44345282  0.74687685  0.79655602    -0.06100
C1445       C  0.46322228  0.78426980  0.78660194    -0.33000
C1446       C  0.44663102  0.80675237  0.78828993     0.36000
H1447       H  0.36307702  0.74310097  0.82072348     0.16400
O1448       O  0.38885947  0.69739261  0.82199544    -0.60500
H1449       H  0.48996528  0.79497440  0.77491239     0.16400
O1450       O  0.46519716  0.84195587  0.77565335    -0.60600
H1451       H  0.47868609  0.85879554  0.79357297     0.43400
H1452       H  0.39588476  0.69893094  0.84447117     0.43400
C1453       C  0.25304608  0.81090373  0.67855693    -0.05700
C1454       C  0.27388943  0.82010449  0.65065763    -0.33100
C1455       C  0.25627216  0.80604902  0.62177049     0.36100
C1456       C  0.21717839  0.78275191  0.62030444    -0.06100
C1457       C  0.19587311  0.77671670  0.64766370    -0.33000
C1458       C  0.21359410  0.79097404  0.67676093     0.36000
H1459       H  0.30419914  0.83593358  0.65150755     0.16400
O1460       O  0.27772963  0.81262190  0.59534045    -0.60500
H1461       H  0.16583359  0.75805546  0.64701052     0.16400
O1462       O  0.19232998  0.78140960  0.70357566    -0.60600
H1463       H  0.18649012  0.80165973  0.70669049     0.43400
H1464       H  0.28730442  0.79499750  0.59660470     0.43400
C1465       C  0.10795459  0.47981016  0.87824176    -0.05700
C1466       C  0.11716065  0.45316761  0.88887689    -0.33100
C1467       C  0.12103042  0.44837229  0.92101082     0.36100
C1468       C  0.11553831  0.47016834  0.94337070    -0.06100
C1469       C  0.10510457  0.49584698  0.93300068    -0.33000
C1470       C  0.10166412  0.50105541  0.90087280     0.36000
H1471       H  0.12208389  0.43628195  0.87221815     0.16400
O1472       O  0.13001245  0.42216597  0.93027133    -0.60500
H1473       H  0.10060688  0.51283102  0.94990136     0.16400
O1474       O  0.09195330  0.52686356  0.89201523    -0.60600
H1475       H  0.11566938  0.55127393  0.89226629     0.43400
H1476       H  0.10569787  0.39924741  0.93457687     0.43400
C1477       C  0.11279381  0.61347286  0.63962495    -0.05700
C1478       C  0.08939677  0.57449795  0.64180516    -0.33100
C1479       C  0.08298393  0.55659243  0.67098205     0.36100
C1480       C  0.09921767  0.57790539  0.69826430    -0.06100
C1481       C  0.11873052  0.61707955  0.69642721    -0.33000
C1482       C  0.12569740  0.63493466  0.66735670     0.36000
H1483       H  0.07897262  0.55764688  0.62067254     0.16400
O1484       O  0.06437047  0.51826295  0.67216056    -0.60500
H1485       H  0.13193142  0.63374299  0.71725655     0.16400
O1486       O  0.14752583  0.67317773  0.66613954    -0.60600
H1487       H  0.12963623  0.68239958  0.66477453     0.43400
H1488       H  0.08369379  0.51131451  0.66810021     0.43400
C1489       C  0.18746042  0.64407676  0.80272062    -0.05700
C1490       C  0.17029283  0.66464770  0.79385986    -0.33100
C1491       C  0.19137360  0.70383330  0.79139815     0.36100
C1492       C  0.22975616  0.72273475  0.79861089    -0.06100
C1493       C  0.24560487  0.70254818  0.81113064    -0.33000
C1494       C  0.22488846  0.66352240  0.81301344     0.36000
H1495       H  0.14158203  0.65020283  0.78566486     0.16400
O1496       O  0.17518741  0.72286109  0.77902290    -0.60500
H1497       H  0.27516400  0.71684759  0.81685229     0.16400
O1498       O  0.24202319  0.64446163  0.82327656    -0.60600
H1499       H  0.25856629  0.64588741  0.80578224     0.43400
H1500       H  0.17769600  0.72180471  0.75589398     0.43400
C1501       C  0.24857124  0.52959646  0.80247898    -0.05700
C1502       C  0.26929823  0.56611023  0.81447818    -0.33100
C1503       C  0.30833183  0.58461661  0.81548994     0.36100
C1504       C  0.32716883  0.56646089  0.80461117    -0.06100
C1505       C  0.30621805  0.52824570  0.79671421    -0.33000
C1506       C  0.26699628  0.50982036  0.79534258     0.36000
H1507       H  0.25537927  0.58164904  0.82002966     0.16400
O1508       O  0.32785832  0.62155080  0.82415081    -0.60500
H1509       H  0.32027025  0.51383405  0.78821993     0.16400
O1510       O  0.24755892  0.47448271  0.78286162    -0.60600
H1511       H  0.23909718  0.45750417  0.80126890     0.43400
H1512       H  0.32834551  0.62140079  0.84746501     0.43400
C1513       C  0.29576516  0.46848298  0.44201489    -0.05700
C1514       C  0.33326537  0.48933923  0.43199684    -0.33100
C1515       C  0.34244510  0.49488984  0.40005364     0.36100
C1516       C  0.31395630  0.47894994  0.37723731    -0.06100
C1517       C  0.27648447  0.45731606  0.38728069    -0.33000
C1518       C  0.26730982  0.45208140  0.41926856     0.36000
H1519       H  0.35575397  0.50232290  0.44902514     0.16400
O1520       O  0.37938946  0.51541676  0.39151215    -0.60500
H1521       H  0.25394017  0.44482721  0.37027504     0.16400
O1522       O  0.23046647  0.43101955  0.42793199    -0.60600
H1523       H  0.22553652  0.40501211  0.42938669     0.43400
H1524       H  0.38595508  0.54193630  0.39331659     0.43400
C1525       C  0.17072962  0.58326783  0.51566970    -0.05700
C1526       C  0.14918529  0.54469526  0.52148004    -0.33100
C1527       C  0.16563198  0.52211562  0.51962534     0.36100
C1528       C  0.20416252  0.53853970  0.51272790    -0.06100
C1529       C  0.22369390  0.57568900  0.50241543    -0.33000
C1530       C  0.20731230  0.59798769  0.50388287     0.36000
H1531       H  0.12095032  0.53283944  0.53044833     0.16400
O1532       O  0.14511447  0.48534101  0.52843745    -0.60500
H1533       H  0.25296641  0.58856541  0.49611268     0.16400
O1534       O  0.22850465  0.63523438  0.49658952    -0.60600
H1535       H  0.24579966  0.64680867  0.51463585     0.43400
H1536       H  0.13602165  0.47114822  0.50846128     0.43400
C1537       C  0.35776129  0.52049774  0.63871734    -0.05700
C1538       C  0.33683359  0.50817358  0.66654748    -0.33100
C1539       C  0.35456751  0.51915965  0.69574848     0.36100
C1540       C  0.39351520  0.54330198  0.69721354    -0.06100
C1541       C  0.41481697  0.55201418  0.66963517    -0.33000
C1542       C  0.39716248  0.54060690  0.64035297     0.36000
H1543       H  0.30653958  0.49200882  0.66561581     0.16400
O1544       O  0.33326431  0.51014356  0.72252380    -0.60500
H1545       H  0.44476860  0.57113632  0.67050646     0.16400
O1546       O  0.41844940  0.55254098  0.61352502    -0.60600
H1547       H  0.42122577  0.57724970  0.60870359     0.43400
H1548       H  0.32955553  0.48553649  0.72908902     0.43400
C1549       C  0.18396653  0.45200782  0.62204354    -0.05700
C1550       C  0.19257859  0.44000114  0.64998868    -0.33100
C1551       C  0.18098317  0.44653571  0.67919804     0.36100
C1552       C  0.16114595  0.46596585  0.68057483    -0.06100
C1553       C  0.14946433  0.47454204  0.65246267    -0.33000
C1554       C  0.16034780  0.46727672  0.62338265     0.36000
H1555       H  0.21161293  0.42924164  0.64946081     0.16400
O1556       O  0.19328001  0.43817190  0.70621891    -0.60500
H1557       H  0.13373578  0.48897958  0.65306441     0.16400
O1558       O  0.15163992  0.47946482  0.59649957    -0.60600
H1559       H  0.12689585  0.45848368  0.58994926     0.43400
H1560       H  0.17336775  0.41248657  0.71181560     0.43400
C1561       C  0.38105414  0.61061228  0.51836628    -0.05700
C1562       C  0.41988675  0.62834721  0.52276149    -0.33100
C1563       C  0.44202598  0.66770585  0.52161537     0.36100
C1564       C  0.42497826  0.68950193  0.51647015    -0.06100
C1565       C  0.38700069  0.67120957  0.50820047    -0.33000
C1566       C  0.36527327  0.63220753  0.50874247     0.36000
H1567       H  0.43252795  0.61212814  0.52993256     0.16400
O1568       O  0.47961543  0.68462052  0.52792577    -0.60500
H1569       H  0.37345003  0.68727168  0.50346915     0.16400
O1570       O  0.32764866  0.61553618  0.50285552    -0.60600
H1571       H  0.32469703  0.60764725  0.48050052     0.43400
H1572       H  0.48154742  0.67914920  0.55033601     0.43400
C1573       C  0.22881241  0.29782264  0.59112056    -0.05700
C1574       C  0.23976040  0.32871072  0.61109008    -0.33100
C1575       C  0.25759178  0.36515739  0.59904520     0.36100
C1576       C  0.26404841  0.37110403  0.56651274    -0.06100
C1577       C  0.25513914  0.34052374  0.54674712    -0.33000
C1578       C  0.23830222  0.30408554  0.55895984     0.36000
H1579       H  0.23252949  0.32438838  0.63583329     0.16400
O1580       O  0.26594919  0.39454539  0.61889610    -0.60500
H1581       H  0.25951916  0.34470226  0.52160634     0.16400
O1582       O  0.22752208  0.27453565  0.53872739    -0.60600
H1583       H  0.24911929  0.27042617  0.53784092     0.43400
H1584       H  0.24316598  0.39673109  0.61926405     0.43400
C1585       C  0.88887119  0.63145465  0.92038125    -0.05700
C1586       C  0.89323503  0.63720547  0.88773892    -0.33100
C1587       C  0.91065707  0.67349457  0.87517128     0.36100
C1588       C  0.92528000  0.70482325  0.89529825    -0.06100
C1589       C  0.92298707  0.69915430  0.92797461    -0.33000
C1590       C  0.90416968  0.66281350  0.94053591     0.36000
H1591       H  0.88082537  0.61343734  0.87187313     0.16400
O1592       O  0.91158874  0.67801261  0.84317958    -0.60500
H1593       H  0.93352640  0.72291723  0.94378888     0.16400
O1594       O  0.90008043  0.65817187  0.97251299    -0.60600
H1595       H  0.87837268  0.66112257  0.97784871     0.43400
H1596       H  0.93557580  0.68031075  0.83634018     0.43400
C1597       C  0.84077281  0.48398766  0.84099866    -0.05700
C1598       C  0.86214776  0.46628635  0.84037072    -0.33100
C1599       C  0.86763519  0.45230149  0.81210290     0.36100
C1600       C  0.85213033  0.45650927  0.78413598    -0.06100
C1601       C  0.83531586  0.47864418  0.78412216    -0.33000
C1602       C  0.82942127  0.49228769  0.81239078     0.36000
H1603       H  0.87129586  0.45988553  0.86214745     0.16400
O1604       O  0.88360088  0.43025500  0.81276488    -0.60500
H1605       H  0.82314118  0.48193618  0.76266200     0.16400
O1606       O  0.81096235  0.51205998  0.81205337    -0.60600
H1607       H  0.78420172  0.49319705  0.80868646     0.43400
H1608       H  0.90917543  0.44615203  0.80420778     0.43400
C1609       C  0.00915553  0.41767567  0.75467001    -0.05700
C1610       C  0.97809342  0.40579390  0.77457059    -0.33100
C1611       C  0.94155960  0.38648641  0.76254767     0.36100
C1612       C  0.93554764  0.37972888  0.73000800    -0.06100
C1613       C  0.96643791  0.39035870  0.71018053    -0.33000
C1614       C  0.00304689  0.40875641  0.72236448     0.36000
H1615       H  0.98224340  0.41278888  0.79937866     0.16400
O1616       O  0.91204627  0.37737748  0.78239498    -0.60500
H1617       H  0.96227493  0.38591992  0.68503288     0.16400
O1618       O  0.03273305  0.42021855  0.70219558    -0.60600
H1619       H  0.03730726  0.44438229  0.69356670     0.43400
H1620       H  0.90329178  0.35129365  0.78904308     0.43400
C1621       C  0.74061254  0.31029955  0.96340033    -0.05700
C1622       C  0.72106858  0.32834725  0.97210341    -0.33100
C1623       C  0.73792693  0.36719497  0.97016065     0.36100
C1624       C  0.77516638  0.38897758  0.95968843    -0.06100
C1625       C  0.79633605  0.37153214  0.95475680    -0.33000
C1626       C  0.77930436  0.33229106  0.95683078     0.36000
H1627       H  0.69162008  0.31209264  0.97787280     0.16400
O1628       O  0.71678682  0.38351262  0.97605474    -0.60500
H1629       H  0.82493618  0.38779196  0.94652356     0.16400
O1630       O  0.79954923  0.31564659  0.94866702    -0.60600
H1631       H  0.80892776  0.31156326  0.96884558     0.43400
H1632       H  0.70054617  0.37780243  0.95728620     0.43400
C1633       C  0.76468247  0.23901910  0.86170528    -0.05700
C1634       C  0.78818779  0.27801420  0.86163888    -0.33100
C1635       C  0.79944046  0.29769532  0.83328217     0.36100
C1636       C  0.78810195  0.27814480  0.80458980    -0.06100
C1637       C  0.76918760  0.23883608  0.80477439    -0.33000
C1638       C  0.75718866  0.21919966  0.83319737     0.36000
H1639       H  0.79385669  0.29360981  0.88343192     0.16400
O1640       O  0.81983324  0.33606256  0.83378875    -0.60500
H1641       H  0.76050214  0.22338954  0.78282905     0.16400
O1642       O  0.73365451  0.18116866  0.83253095    -0.60600
H1643       H  0.74944867  0.17046997  0.83862679     0.43400
H1644       H  0.80143192  0.34419888  0.83805663     0.43400
C1645       C  0.68586281  0.08095440  0.92169128    -0.05700
C1646       C  0.68423359  0.07256349  0.88951269    -0.33100
C1647       C  0.70332621  0.05520620  0.87754319     0.36100
C1648       C  0.72285204  0.04438955  0.89801713    -0.06100
C1649       C  0.72193175  0.05005318  0.93048959    -0.33000
C1650       C  0.70404556  0.06863795  0.94234158     0.36000
H1651       H  0.67079245  0.08225617  0.87327972     0.16400
O1652       O  0.70398936  0.05021339  0.84569650    -0.60500
H1653       H  0.73741356  0.04247417  0.94645709     0.16400
O1654       O  0.70648684  0.07668523  0.97387072    -0.60600
H1655       H  0.68208472  0.05766307  0.98282904     0.43400
H1656       H  0.72398788  0.07462059  0.83753108     0.43400
C1657       C  0.69323387  0.25326960  0.68686793    -0.05700
C1658       C  0.67297878  0.26934728  0.67484442    -0.33100
C1659       C  0.63392823  0.24888479  0.67309116     0.36100
C1660       C  0.61425554  0.21154921  0.68344835    -0.06100
C1661       C  0.63468640  0.19412207  0.69205057    -0.33000
C1662       C  0.67403031  0.21482022  0.69389856     0.36000
H1663       H  0.68735258  0.29890436  0.66926937     0.16400
O1664       O  0.61512507  0.26662735  0.66381128    -0.60500
H1665       H  0.62008210  0.16546491  0.70028614     0.16400
O1666       O  0.69282736  0.19840493  0.70623930    -0.60600
H1667       H  0.70194994  0.19066790  0.68775606     0.43400
H1668       H  0.61104893  0.26178602  0.64089348     0.43400
C1669       C  0.54662222  0.11958520  0.78381169    -0.05700
C1670       C  0.58571893  0.13642906  0.78287254    -0.33100
C1671       C  0.60631349  0.14293022  0.81059184     0.36100
C1672       C  0.58762483  0.13181870  0.83970790    -0.06100
C1673       C  0.54829132  0.11053337  0.84004868    -0.33000
C1674       C  0.52774239  0.10467439  0.81229406     0.36000
H1675       H  0.60057170  0.14823539  0.76104882     0.16400
O1676       O  0.64468536  0.16177307  0.80919036    -0.60500
H1677       H  0.53342156  0.10164837  0.86221065     0.16400
O1678       O  0.48963600  0.08887287  0.81396711    -0.60600
H1679       H  0.47942374  0.06216667  0.80845954     0.43400
H1680       H  0.65235119  0.18838461  0.80570178     0.43400
C1681       C  0.38667290  0.03581140  0.72833304    -0.05700
C1682       C  0.37625508  0.00467915  0.70879648    -0.33100
C1683       C  0.35880218  0.96841203  0.72119956     0.36100
C1684       C  0.35259466  0.96277026  0.75378005    -0.06100
C1685       C  0.36137726  0.99357699  0.77326198    -0.33000
C1686       C  0.37772999  0.02988600  0.76065192     0.36000
H1687       H  0.38316747  0.00865447  0.68398455     0.16400
O1688       O  0.35106361  0.93894874  0.70168011    -0.60500
H1689       H  0.35681153  0.98965025  0.79840038     0.16400
O1690       O  0.38717073  0.05958111  0.78043418    -0.60600
H1691       H  0.41270098  0.06729364  0.78808044     0.43400
H1692       H  0.32564747  0.93044331  0.69333145     0.43400
C1693       C  0.50353442  0.27645631  0.68473668    -0.05700
C1694       C  0.54050800  0.29633523  0.67366884    -0.33100
C1695       C  0.55943219  0.33530128  0.67121602     0.36100
C1696       C  0.54110062  0.35495380  0.67928926    -0.06100
C1697       C  0.50255600  0.33464904  0.68612157    -0.33000
C1698       C  0.48382653  0.29551539  0.68938751     0.36000
H1699       H  0.55590474  0.28190518  0.66974474     0.16400
O1700       O  0.59656748  0.35418752  0.66297929    -0.60500
H1701       H  0.48802443  0.34934777  0.69247450     0.16400
O1702       O  0.44767109  0.27681998  0.70017785    -0.60600
H1703       H  0.44968885  0.27931589  0.72340598     0.43400
H1704       H  0.61016890  0.35270712  0.68160555     0.43400
C1705       C  0.69528842  0.53307969  0.80406930    -0.05700
C1706       C  0.67514355  0.52608999  0.83218216    -0.33100
C1707       C  0.69341425  0.53300973  0.86115439     0.36100
C1708       C  0.73212485  0.54639744  0.86215733    -0.06100
C1709       C  0.75274121  0.55680067  0.83412180    -0.33000
C1710       C  0.73455724  0.55038230  0.80508723     0.36000
H1711       H  0.64492021  0.51295914  0.83165543     0.16400
O1712       O  0.67254506  0.52197133  0.88819869    -0.60500
H1713       H  0.78229209  0.56581970  0.83452821     0.16400
O1714       O  0.75472693  0.55623047  0.77796489    -0.60600
H1715       H  0.76387205  0.58267404  0.77228554     0.43400
H1716       H  0.67488656  0.54519825  0.89714544     0.43400
C1717       C  0.76065240  0.42988516  0.68051196    -0.05700
C1718       C  0.77796624  0.46797375  0.68884625    -0.33100
C1719       C  0.75689294  0.48594659  0.69130344     0.36100
C1720       C  0.71838244  0.46596216  0.68449605    -0.06100
C1721       C  0.70242896  0.42944707  0.67243858    -0.33000
C1722       C  0.72313310  0.41132201  0.67062295     0.36000
H1723       H  0.80673926  0.48255884  0.69689418     0.16400
O1724       O  0.77317453  0.52141696  0.70357090    -0.60500
H1725       H  0.67277774  0.41368454  0.66717918     0.16400
O1726       O  0.70544483  0.37429107  0.66219054    -0.60600
H1727       H  0.70736940  0.37427834  0.63894271     0.43400
H1728       H  0.77100139  0.51804529  0.72672147     0.43400
C1729       C  0.55351403  0.61332106  0.75870445    -0.05700
C1730       C  0.57575041  0.62768521  0.73149726    -0.33100
C1731       C  0.59488016  0.61047956  0.71886135     0.36100
C1732       C  0.59211026  0.57878476  0.73360449    -0.06100
C1733       C  0.57230198  0.56625172  0.76187221    -0.33000
C1734       C  0.55313705  0.58307140  0.77442898     0.36000
H1735       H  0.57635513  0.65068535  0.71889432     0.16400
O1736       O  0.61383250  0.62312594  0.69100878    -0.60500
H1737       H  0.57003356  0.54190514  0.77349785     0.16400
O1738       O  0.53334318  0.56909722  0.80181956    -0.60600
H1739       H  0.51057895  0.54533668  0.79580754     0.43400
H1740       H  0.64046972  0.63915853  0.69706179     0.43400
C1741       C  0.43575433  0.18411871  0.80559451    -0.05700
C1742       C  0.44746649  0.17459672  0.83318491    -0.33100
C1743       C  0.44171465  0.18607702  0.86250198     0.36100
C1744       C  0.42433223  0.20772250  0.86455211    -0.06100
C1745       C  0.40848919  0.21331290  0.83745847    -0.33000
C1746       C  0.41406028  0.20157971  0.80794359     0.36000
H1747       H  0.46364959  0.16065400  0.83187885     0.16400
O1748       O  0.45794404  0.18072950  0.88855119    -0.60500
H1749       H  0.39568699  0.23055410  0.83862479     0.16400
O1750       O  0.40164185  0.21082905  0.78145170    -0.60600
H1751       H  0.42195092  0.23632456  0.77574559     0.43400
H1752       H  0.44200393  0.15386248  0.89380049     0.43400
C1753       C  0.49362614  0.38361871  0.84385339    -0.05700
C1754       C  0.48407675  0.36313782  0.81566521    -0.33100
C1755       C  0.49593961  0.38138924  0.78678165     0.36100
C1756       C  0.51813666  0.42061544  0.78582102    -0.06100
C1757       C  0.52427999  0.44129831  0.81354293    -0.33000
C1758       C  0.51200486  0.42304445  0.84255467     0.36000
H1759       H  0.46955158  0.33283791  0.81615617     0.16400
O1760       O  0.49003770  0.36051966  0.76003934    -0.60500
H1761       H  0.54203810  0.47147157  0.81314596     0.16400
O1762       O  0.52143115  0.44402277  0.86959460    -0.60600
H1763       H  0.54677976  0.44892471  0.87519452     0.43400
H1764       H  0.46830301  0.35983329  0.74957764     0.43400
C1765       C  0.51916904  0.23344105  0.96632298    -0.05700
C1766       C  0.55765398  0.25397703  0.97252899    -0.33100
C1767       C  0.58006933  0.23808876  0.96824807     0.36100
C1768       C  0.56407308  0.20060744  0.95844520    -0.06100
C1769       C  0.52496548  0.17841375  0.95639445    -0.33000
C1770       C  0.50237304  0.19461076  0.96056550     0.36000
H1771       H  0.57106373  0.28351379  0.97786537     0.16400
O1772       O  0.61809553  0.26013529  0.97177577    -0.60500
H1773       H  0.51221506  0.14946470  0.94903085     0.16400
O1774       O  0.46459972  0.17319278  0.95555494    -0.60600
H1775       H  0.45380650  0.16259686  0.97642447     0.43400
H1776       H  0.62687504  0.27610743  0.95273453     0.43400
C1777       C  0.66343282  0.45164979  0.96684928    -0.05700
C1778       C  0.64545448  0.41345833  0.97402910    -0.33100
C1779       C  0.60660874  0.39140956  0.97249545     0.36100
C1780       C  0.58499341  0.40736287  0.96352805    -0.06100
C1781       C  0.60230832  0.44629687  0.96058945    -0.33000
C1782       C  0.64146680  0.46862228  0.96258049     0.36000
H1783       H  0.66163823  0.40003750  0.97840048     0.16400
O1784       O  0.59023774  0.35352708  0.97657990    -0.60500
H1785       H  0.58597915  0.45896834  0.95383985     0.16400
O1786       O  0.65796901  0.50614210  0.95652594    -0.60600
H1787       H  0.66165438  0.51812161  0.97745973     0.43400
H1788       H  0.58525825  0.34947799  0.99947395     0.43400
C1789       C  0.34419781  0.28716090  0.92317027    -0.05700
C1790       C  0.33793266  0.28904847  0.89093916    -0.33100
C1791       C  0.30140914  0.27101140  0.87880394     0.36100
C1792       C  0.27058119  0.25175602  0.89909405    -0.06100
C1793       C  0.27677762  0.25278314  0.93160757    -0.33000
C1794       C  0.31328769  0.26977285  0.94364591     0.36000
H1795       H  0.36139401  0.30198334  0.87483215     0.16400
O1796       O  0.29618419  0.27023652  0.84690673    -0.60500
H1797       H  0.25333597  0.23776821  0.94746947     0.16400
O1798       O  0.31855902  0.26825895  0.97534447    -0.60600
H1799       H  0.31473322  0.24292000  0.97910084     0.43400
H1800       H  0.29315104  0.29206428  0.84246431     0.43400
C1801       C  0.83308941  0.51623399  0.10574885    -0.05700
C1802       C  0.81608659  0.53648383  0.09551295    -0.33100
C1803       C  0.81130268  0.54061960  0.06351591     0.36100
C1804       C  0.82396442  0.52477065  0.04082089    -0.06100
C1805       C  0.84085915  0.50441717  0.05094830    -0.33000
C1806       C  0.84499876  0.49964278  0.08301972     0.36000
H1807       H  0.80593379  0.54891776  0.11241255     0.16400
O1808       O  0.79430412  0.56033562  0.05478752    -0.60500
H1809       H  0.85033467  0.49148873  0.03391482     0.16400
O1810       O  0.86140113  0.47936955  0.09175169    -0.60600
H1811       H  0.84095122  0.45286033  0.09123395     0.43400
H1812       H  0.81499250  0.58649577  0.05212714     0.43400
C1813       C  0.01256098  0.62144517  0.25175407    -0.05700
C1814       C  0.00714250  0.61640967  0.21909768    -0.33100
C1815       C  0.97085229  0.59708055  0.20633936     0.36100
C1816       C  0.93938393  0.58387837  0.22617921    -0.06100
C1817       C  0.94498670  0.59145502  0.25855435    -0.33000
C1818       C  0.98116961  0.60950149  0.27140874     0.36000
H1819       H  0.03095810  0.62491150  0.20368345     0.16400
O1820       O  0.96634572  0.59035543  0.17457489    -0.60500
H1821       H  0.92113412  0.58091590  0.27422483     0.16400
O1822       O  0.98547232  0.61330368  0.30342214    -0.60600
H1823       H  0.98881966  0.63827085  0.30816409     0.43400
H1824       H  0.96966185  0.56851600  0.17105036     0.43400
C1825       C  0.44570797  0.14842172  0.54092771    -0.05700
C1826       C  0.43226660  0.16446178  0.56261770    -0.33100
C1827       C  0.43505372  0.16047873  0.59507808     0.36100
C1828       C  0.45207185  0.14058035  0.60653710    -0.06100
C1829       C  0.46579645  0.12485385  0.58488234    -0.33000
C1830       C  0.46250429  0.12832372  0.55246011     0.36000
H1831       H  0.41968927  0.18037350  0.55443705     0.16400
O1832       O  0.42289582  0.17794671  0.61534854    -0.60500
H1833       H  0.47925894  0.10978659  0.59308942     0.16400
O1834       O  0.47761478  0.11353987  0.53232214    -0.60600
H1835       H  0.45849593  0.08661934  0.53054758     0.43400
H1836       H  0.39540011  0.16115581  0.61668660     0.43400
C1837       C  0.34653586  0.08709554  0.41663761    -0.05700
C1838       C  0.31660715  0.06503082  0.43686210    -0.33100
C1839       C  0.27967469  0.04592069  0.42555188     0.36100
C1840       C  0.27230251  0.04993470  0.39386512    -0.06100
C1841       C  0.30250346  0.07063641  0.37341861    -0.33000
C1842       C  0.33941149  0.08864525  0.38450039     0.36000
H1843       H  0.32174420  0.06397076  0.46171919     0.16400
O1844       O  0.25083939  0.02668030  0.44631659    -0.60500
H1845       H  0.29734765  0.07423077  0.34904761     0.16400
O1846       O  0.36807806  0.11061800  0.36436224    -0.60600
H1847       H  0.37559483  0.09356542  0.35472952     0.43400
H1848       H  0.24752597  0.00125533  0.44736107     0.43400
C1849       C  0.45534720  0.34453338  0.10721170    -0.05700
C1850       C  0.43263641  0.30702412  0.09740416    -0.33100
C1851       C  0.42872777  0.29708752  0.06552118     0.36100
C1852       C  0.44731510  0.32478530  0.04254805    -0.06100
C1853       C  0.46940324  0.36230306  0.05217915    -0.33000
C1854       C  0.47386140  0.37222832  0.08406886     0.36000
H1855       H  0.41826254  0.28497156  0.11454775     0.16400
O1856       O  0.40658092  0.26024268  0.05715894    -0.60500
H1857       H  0.48407901  0.38411936  0.03488279     0.16400
O1858       O  0.49612179  0.40913742  0.09219036    -0.60600
H1859       H  0.52198014  0.41348143  0.09250273     0.43400
H1860       H  0.38169755  0.25716611  0.05252672     0.43400
C1861       C  0.69775942  0.47322039  0.18326880    -0.05700
C1862       C  0.67988393  0.49248157  0.19348307    -0.33100
C1863       C  0.64079082  0.47572173  0.19119400     0.36100
C1864       C  0.61926740  0.43890484  0.17936324    -0.06100
C1865       C  0.63774437  0.42168346  0.16595864    -0.33000
C1866       C  0.67669793  0.43880487  0.16749684     0.36000
H1867       H  0.69565116  0.51877801  0.20597204     0.16400
O1868       O  0.62368605  0.49343826  0.20446957    -0.60500
H1869       H  0.62175431  0.39358951  0.15650876     0.16400
O1870       O  0.69358833  0.41973886  0.15663255    -0.60600
H1871       H  0.70659108  0.43276356  0.13702608     0.43400
H1872       H  0.62217987  0.50883906  0.18737839     0.43400
C1873       C  0.43646190  0.24969756  0.36341858    -0.05700
C1874       C  0.45570149  0.28890961  0.36240996    -0.33100
C1875       C  0.46208297  0.30766667  0.33376848     0.36100
C1876       C  0.44864423  0.28707748  0.30564142    -0.06100
C1877       C  0.42544119  0.24799682  0.30717515    -0.33000
C1878       C  0.41971794  0.22920909  0.33587068     0.36000
H1879       H  0.46896320  0.30497805  0.38348341     0.16400
O1880       O  0.48274682  0.34604076  0.33332053    -0.60500
H1881       H  0.41461618  0.23174228  0.28578791     0.16400
O1882       O  0.40109272  0.19085587  0.33620230    -0.60600
H1883       H  0.42040062  0.18402801  0.33164336     0.43400
H1884       H  0.50915644  0.35246903  0.33589706     0.43400
C1885       C  0.35255501  0.41599414  0.25584685    -0.05700
C1886       C  0.35347153  0.41088030  0.22326495    -0.33100
C1887       C  0.37319440  0.39436405  0.21074558     0.36100
C1888       C  0.39096220  0.38110234  0.23089488    -0.06100
C1889       C  0.38753310  0.38359989  0.26356365    -0.33000
C1890       C  0.36902535  0.40137765  0.27604902     0.36000
H1891       H  0.34145823  0.42240568  0.20735234     0.16400
O1892       O  0.37602765  0.39239961  0.17873619    -0.60500
H1893       H  0.40157993  0.37420023  0.27941807     0.16400
O1894       O  0.36911341  0.40632566  0.30796460    -0.60600
H1895       H  0.34577950  0.38428603  0.31563271     0.43400
H1896       H  0.39628351  0.41760476  0.17233701     0.43400
C1897       C  0.68839940  0.63191828  0.42055986    -0.05700
C1898       C  0.68431413  0.63760374  0.38855978    -0.33100
C1899       C  0.70216739  0.67393747  0.37588621     0.36100
C1900       C  0.72314754  0.70515522  0.39551865    -0.06100
C1901       C  0.72453098  0.69952614  0.42789322    -0.33000
C1902       C  0.70771735  0.66331845  0.44038148     0.36000
H1903       H  0.66974249  0.61381172  0.37292070     0.16400
O1904       O  0.69997484  0.67864993  0.34419132    -0.60500
H1905       H  0.74107185  0.72321135  0.44321804     0.16400
O1906       O  0.71222170  0.65886756  0.47172416    -0.60600
H1907       H  0.68915530  0.65537118  0.48200268     0.43400
H1908       H  0.71912713  0.67409901  0.33448255     0.43400
C1909       C  0.65094631  0.52977786  0.54141569    -0.05700
C1910       C  0.61391445  0.50554131  0.55125589    -0.33100
C1911       C  0.60439043  0.50048582  0.58320070     0.36100
C1912       C  0.63205679  0.52020959  0.60619167    -0.06100
C1913       C  0.66898128  0.54521290  0.59612877    -0.33000
C1914       C  0.67854784  0.54972416  0.56419346     0.36000
H1915       H  0.59226345  0.48958148  0.53407808     0.16400
O1916       O  0.56819123  0.47538182  0.59154192    -0.60500
H1917       H  0.69097979  0.56092190  0.61308153     0.16400
O1918       O  0.71474454  0.57440933  0.55550913    -0.60600
H1919       H  0.72827568  0.56048435  0.55797329     0.43400
H1920       H  0.55475137  0.48951901  0.59031952     0.43400
C1921       C  0.78837286  0.53670054  0.30363213    -0.05700
C1922       C  0.80003641  0.52737545  0.33134092    -0.33100
C1923       C  0.78932017  0.53408000  0.36067945     0.36100
C1924       C  0.76582804  0.54942533  0.36260692    -0.06100
C1925       C  0.75742768  0.56238386  0.33509951    -0.33000
C1926       C  0.76895077  0.55648360  0.30562289     0.36000
H1927       H  0.81543827  0.51262117  0.33018136     0.16400
O1928       O  0.79784070  0.52106762  0.38715586    -0.60500
H1929       H  0.73855352  0.57332575  0.33612691     0.16400
O1930       O  0.75691405  0.56571157  0.27890316    -0.60600
H1931       H  0.77575353  0.59228904  0.27490626     0.43400
H1932       H  0.82266271  0.54174612  0.39391554     0.43400
C1933       C  0.59437123  0.48310227  0.34237394    -0.05700
C1934       C  0.55561094  0.46936297  0.34064565    -0.33100
C1935       C  0.53673136  0.45757081  0.31174495     0.36100
C1936       C  0.55679496  0.45968822  0.28440177    -0.06100
C1937       C  0.59599969  0.47799308  0.28567769    -0.33000
C1938       C  0.61483938  0.48978395  0.31430293     0.36000
H1939       H  0.53945950  0.46461016  0.36195949     0.16400
O1940       O  0.49841144  0.43953522  0.31119285    -0.60500
H1941       H  0.61180878  0.47949139  0.26487585     0.16400
O1942       O  0.65293925  0.50491281  0.31480017    -0.60600
H1943       H  0.66345527  0.53236792  0.31432942     0.43400
H1944       H  0.49230563  0.45965275  0.30860227     0.43400
C1945       C  0.56767150  0.39061413  0.46417440    -0.05700
C1946       C  0.58438059  0.37009322  0.47405281    -0.33100
C1947       C  0.56353414  0.33118102  0.47646916     0.36100
C1948       C  0.52518640  0.31196192  0.46878832    -0.06100
C1949       C  0.50749428  0.33286404  0.46297759    -0.33000
C1950       C  0.52862184  0.37207785  0.46038934     0.36000
H1951       H  0.61444892  0.38404128  0.47726354     0.16400
O1952       O  0.58170156  0.31202048  0.48326490    -0.60500
H1953       H  0.47800451  0.31869362  0.45711596     0.16400
O1954       O  0.51146028  0.39142653  0.45106409    -0.60600
H1955       H  0.51124308  0.39045234  0.42774342     0.43400
H1956       H  0.58104139  0.30998670  0.50652078     0.43400
C1957       C  0.82745542  0.32241654  0.54123262    -0.05700
C1958       C  0.85266232  0.35886568  0.55218207    -0.33100
C1959       C  0.85649780  0.36743005  0.58429811     0.36100
C1960       C  0.83510912  0.33940256  0.60630727    -0.06100
C1961       C  0.81106611  0.30269051  0.59558658    -0.33000
C1962       C  0.80688731  0.29412212  0.56345957     0.36000
H1963       H  0.86901664  0.38126209  0.53578266     0.16400
O1964       O  0.88116039  0.40330612  0.59383115    -0.60500
H1965       H  0.79447208  0.28057787  0.61216363     0.16400
O1966       O  0.78267139  0.25799900  0.55420122    -0.60600
H1967       H  0.75748943  0.25536367  0.55468340     0.43400
H1968       H  0.90480027  0.40359488  0.59840589     0.43400
C1969       C  0.83705466  0.38884402  0.34509971    -0.05700
C1970       C  0.82473695  0.36778787  0.31732207    -0.33100
C1971       C  0.83107000  0.38547795  0.28825053     0.36100
C1972       C  0.84929444  0.42472285  0.28670399    -0.06100
C1973       C  0.86511938  0.44591150  0.31402231    -0.33000
C1974       C  0.85954473  0.42813442  0.34321904     0.36000
H1975       H  0.80808616  0.33753122  0.31830547     0.16400
O1976       O  0.81516611  0.36418896  0.26186734    -0.60500
H1977       H  0.87847697  0.47612858  0.31320738     0.16400
O1978       O  0.87223249  0.44952480  0.36996476    -0.60600
H1979       H  0.89795775  0.45413549  0.37308422     0.43400
H1980       H  0.83387903  0.35790647  0.25396516     0.43400
C1981       C  0.66364750  0.23379069  0.46832275    -0.05700
C1982       C  0.64326114  0.19674455  0.45712829    -0.33100
C1983       C  0.60406026  0.17824814  0.45493369     0.36100
C1984       C  0.58504433  0.19678004  0.46429849    -0.06100
C1985       C  0.60504743  0.23177789  0.47909826    -0.33000
C1986       C  0.64402253  0.25021966  0.48127831     0.36000
H1987       H  0.65782005  0.18362832  0.44694616     0.16400
O1988       O  0.58524368  0.14432450  0.43992792    -0.60500
H1989       H  0.59068429  0.24636829  0.48636554     0.16400
O1990       O  0.66280628  0.28571539  0.49345353    -0.60600
H1991       H  0.66882596  0.28267818  0.51542714     0.43400
H1992       H  0.57938375  0.12550392  0.45664592     0.43400
C1993       C  0.74306161  0.45900210  0.47054195    -0.05700
C1994       C  0.72331304  0.42174880  0.48074830    -0.33100
C1995       C  0.73992833  0.39960677  0.48005891     0.36100
C1996       C  0.77652626  0.41423511  0.46831587    -0.06100
C1997       C  0.79797063  0.45266382  0.46208478    -0.33000
C1998       C  0.78156380  0.47527639  0.46365627     0.36000
H1999       H  0.69390357  0.40884651  0.48669507     0.16400
O2000       O  0.71865618  0.36240977  0.48737824    -0.60500
H2001       H  0.82613235  0.46437191  0.45297594     0.16400
O2002       O  0.80198519  0.51187400  0.45433684    -0.60600
H2003       H  0.81802012  0.52545703  0.47262208     0.43400
H2004       H  0.72668718  0.36015447  0.50883380     0.43400
C2005       C  0.89280681  0.29158098  0.41903675    -0.05700
C2006       C  0.90834744  0.27757371  0.44061497    -0.33100
C2007       C  0.92792040  0.26003081  0.43023764     0.36100
C2008       C  0.93100442  0.25502255  0.39782763    -0.06100
C2009       C  0.91726294  0.27084353  0.37622730    -0.33000
C2010       C  0.89877558  0.28954098  0.38664435     0.36000
H2011       H  0.90365612  0.27858039  0.46559046     0.16400
O2012       O  0.94042889  0.24439778  0.45193517    -0.60500
H2013       H  0.91923403  0.26705933  0.35121205     0.16400
O2014       O  0.88422375  0.30321802  0.36495170    -0.60600
H2015       H  0.85870320  0.28216936  0.36036723     0.43400
H2016       H  0.96643509  0.26420796  0.45679984     0.43400
C2017       C  0.64610213  0.14691553  0.03955121    -0.05700
C2018       C  0.67526443  0.15963159  0.06151114    -0.33100
C2019       C  0.66785972  0.15551704  0.09385579     0.36100
C2020       C  0.63058065  0.13853291  0.10500216    -0.06100
C2021       C  0.60139646  0.12556822  0.08299405    -0.33000
C2022       C  0.60879973  0.12935770  0.05063151     0.36000
H2023       H  0.70405586  0.17304408  0.05360858     0.16400
O2024       O  0.69751245  0.16910839  0.11429948    -0.60500
H2025       H  0.57262129  0.11265571  0.09085586     0.16400
O2026       O  0.57936188  0.11751692  0.03012977    -0.60600
H2027       H  0.56921660  0.09024475  0.02763601     0.43400
H2028       H  0.70441516  0.19541946  0.11839380     0.43400
C2029       C  0.54344448  0.21547445  0.17716524    -0.05700
C2030       C  0.56375282  0.25357064  0.16946078    -0.33100
C2031       C  0.54727167  0.27580523  0.17165338     0.36100
C2032       C  0.50980586  0.26010987  0.18165623    -0.06100
C2033       C  0.48802184  0.22119200  0.18520840    -0.33000
C2034       C  0.50454636  0.19873335  0.18264586     0.36000
H2035       H  0.59341212  0.26688980  0.16436622     0.16400
O2036       O  0.56877481  0.31354972  0.16620786    -0.60500
H2037       H  0.45921774  0.20865276  0.19289603     0.16400
O2038       O  0.48344540  0.16135834  0.18940917    -0.60600
H2039       H  0.47096142  0.14928771  0.16933682     0.43400
H2040       H  0.58565045  0.32394797  0.18465694     0.43400
C2041       C  0.68818129  0.18681476  0.30473388    -0.05700
C2042       C  0.72716825  0.20200425  0.30632278    -0.33100
C2043       C  0.74636711  0.21639078  0.33481807     0.36100
C2044       C  0.72633691  0.21485636  0.36203700    -0.06100
C2045       C  0.68710057  0.19554310  0.36110800    -0.33000
C2046       C  0.66798354  0.18144696  0.33280679     0.36000
H2047       H  0.74313474  0.20598713  0.28501955     0.16400
O2048       O  0.78473007  0.23506464  0.33514686    -0.60500
H2049       H  0.67135692  0.19433166  0.38191902     0.16400
O2050       O  0.62975330  0.16520259  0.33244571    -0.60600
H2051       H  0.62005132  0.13798296  0.33458076     0.43400
H2052       H  0.79267334  0.26089194  0.32826703     0.43400
C2053       C  0.51791855  0.12492216  0.28329508    -0.05700
C2054       C  0.52535674  0.11074919  0.31052442    -0.33100
C2055       C  0.51426798  0.11673831  0.34011349     0.36100
C2056       C  0.49585837  0.13748846  0.34253105    -0.06100
C2057       C  0.48512945  0.14819683  0.31499965    -0.33000
C2058       C  0.49605128  0.14205741  0.28553401     0.36000
H2059       H  0.54326190  0.09869229  0.30923055     0.16400
O2060       O  0.52576130  0.10645266  0.36656249    -0.60500
H2061       H  0.47042405  0.16362520  0.31642516     0.16400
O2062       O  0.48827781  0.15601800  0.25919405    -0.60600
H2063       H  0.50764208  0.18293900  0.25860003     0.43400
H2064       H  0.50507150  0.08091565  0.37155765     0.43400
C2065       C  0.76102034  0.35588158  0.18169278    -0.05700
C2066       C  0.77844736  0.33537132  0.19002348    -0.33100
C2067       C  0.75780850  0.29603785  0.19131633     0.36100
C2068       C  0.71964987  0.27692111  0.18326343    -0.06100
C2069       C  0.70392265  0.29727822  0.17076955    -0.33000
C2070       C  0.72404190  0.33639737  0.17041912     0.36000
H2071       H  0.80698578  0.34986212  0.19856619     0.16400
O2072       O  0.77380244  0.27713232  0.20424714    -0.60500
H2073       H  0.67455374  0.28291419  0.16437020     0.16400
O2074       O  0.70664596  0.35537932  0.16068402    -0.60600
H2075       H  0.68973993  0.35307743  0.17819776     0.43400
H2076       H  0.78218439  0.26819920  0.18606094     0.43400
C2077       C  0.58780763  0.03476748  0.22515636    -0.05700
C2078       C  0.59842767  0.02850772  0.25497416    -0.33100
C2079       C  0.58126923  0.99226958  0.26790089     0.36100
C2080       C  0.55365321  0.96163796  0.25076203    -0.06100
C2081       C  0.54481614  0.96751643  0.22029809    -0.33000
C2082       C  0.56138530  0.00358255  0.20754193     0.36000
H2083       H  0.61829061  0.05198855  0.26910449     0.16400
O2084       O  0.58987692  0.98746230  0.29800951    -0.60500
H2085       H  0.52342696  0.94420239  0.20690925     0.16400
O2086       O  0.55109075  0.00813539  0.17794588    -0.60600
H2087       H  0.52610540  0.00565792  0.18050369     0.43400
H2088       H  0.60995589  0.98123066  0.29570651     0.43400
loop_ 
_geom_bond_atom_site_label_1 
_geom_bond_atom_site_label_2 
_geom_bond_distance 
_geom_bond_site_symmetry_2 
_ccdc_geom_bond_type 
Fe1          O17   2.095       .  S
Fe1           O7   2.074       .  S
Fe1          O14   2.083       .  S
Fe1           O6   2.074       .  S
Fe1          O12   1.965       .  S
Fe2           O5   2.039       .  S
Fe2           O9   2.054       .  S
Fe2          O13   2.044       .  S
Fe2          O18   2.055       .  S
Fe2          O12   1.941       .  S
Fe3          O21   2.098       .  S
Fe3           O8   2.080       .  S
Fe3          O15   2.073       .  S
Fe3           O4   2.088       .  S
Fe3          O12   1.968       .  S
O4           C11   1.273       .  A
O5           C19   1.264       .  A
O6           C11   1.270       .  A
O7           C10   1.276       .  A
O8           C20   1.270       .  A
O9           C22   1.267       .  A
C10          O15   1.272       .  A
C10        C2020   1.488       .  S
C11        C2077   1.491       .  S
O13          C16   1.266       .  A
O14          C16   1.273       .  A
C16        C2053   1.464       .  S
O17          C22   1.271       .  A
O18          C20   1.269       .  A
C19          O21   1.274       .  A
C19        C2068   1.476       .  S
C20        C2041   1.479       .  S
C22        C2029   1.487       .  S
Fe23         O39   2.084       .  S
Fe23         O29   2.076       .  S
Fe23         O36   2.090       .  S
Fe23         O28   2.071       .  S
Fe23         O34   1.964       .  S
Fe24         O27   2.059       .  S
Fe24         O31   2.052       .  S
Fe24         O35   2.056       .  S
Fe24         O40   2.048       .  S
Fe24         O34   1.941       .  S
Fe25         O43   2.069       .  S
Fe25         O30   2.094       .  S
Fe25         O37   2.082       .  S
Fe25         O26   2.065       .  S
Fe25         O34   1.969       .  S
O26          C33   1.272       .  A
O27          C41   1.271       .  A
O28          C33   1.275       .  A
O29          C32   1.270       .  A
O30          C42   1.272       .  A
O31          C44   1.268       .  A
C32          O37   1.271       .  A
C32        C2005   1.481       .  S
C33        C1957   1.487       .  S
O35          C38   1.267       .  A
O36          C38   1.271       .  A
C38        C1981   1.481       .  S
O39          C44   1.273       .  A
O40          C42   1.266       .  A
C41          O43   1.268       .  A
C41        C1969   1.474       .  S
C42        C1996   1.478       .  S
C44        C2044   1.469       .  S
Fe45         O61   2.088       .  S
Fe45         O51   2.076       .  S
Fe45         O58   2.095       .  S
Fe45         O50   2.076       .  S
Fe45         O56   1.968       .  S
Fe46         O49   2.058       .  S
Fe46         O53   2.045       .  S
Fe46         O57   2.053       .  S
Fe46         O62   2.044       .  S
Fe46         O56   1.943       .  S
Fe47         O65   2.070       .  S
Fe47         O52   2.092       .  S
Fe47         O59   2.082       .  S
Fe47         O48   2.062       .  S
Fe47         O56   1.971       .  S
O48          C55   1.270       .  A
O49          C63   1.269       .  A
O50          C55   1.275       .  A
O51          C54   1.271       .  A
O52          C64   1.273       .  A
O53          C66   1.266       .  A
C54          O59   1.272       .  A
C54        C1897   1.483       .  S
C55        C1909   1.480       .  S
O57          C60   1.267       .  A
O58          C60   1.272       .  A
C60        C1993   1.483       .  S
O61          C66   1.273       .  A
O62          C64   1.265       .  A
C63          O65   1.268       .  A
C63        C1933   1.478       .  S
C64        C1945   1.476       .  S
C66        C1924   1.467       .  S
Fe67         O83   2.092       .  S
Fe67         O73   2.078       .  S
Fe67         O80   2.088       .  S
Fe67         O72   2.081       .  S
Fe67         O78   1.966       .  S
Fe68         O71   2.042       .  S
Fe68         O75   2.053       .  S
Fe68         O79   2.043       .  S
Fe68         O84   2.057       .  S
Fe68         O78   1.941       .  S
Fe69         O87   2.101       .  S
Fe69         O74   2.075       .  S
Fe69         O81   2.068       .  S
Fe69         O70   2.088       .  S
Fe69         O78   1.967       .  S
O70          C77   1.272       .  A
O71          C85   1.264       .  A
O72          C77   1.270       .  A
O73          C76   1.276       .  A
O74          C86   1.270       .  A
O75          C88   1.266       .  A
C76          O81   1.272       .  A
C76        C1849   1.491       .  S
C77        C1888   1.485       .  S
O79          C82   1.266       .  A
O80          C82   1.274       .  A
C82        C1936   1.467       .  S
O83          C88   1.271       .  A
O84          C86   1.269       .  A
C85          O87   1.274       .  A
C85        C2032   1.481       .  S
C86        C1876   1.477       .  S
C88        C1864   1.480       .  S
Fe89        O105   2.082       .  S
Fe89         O95   2.082       .  S
Fe89        O102   2.096       .  S
Fe89         O94   2.073       .  S
Fe89        O100   1.961       .  S
Fe90         O93   2.057       .  S
Fe90         O97   2.050       .  S
Fe90        O101   2.050       .  S
Fe90        O106   2.052       .  S
Fe90        O100   1.937       .  S
Fe91        O109   2.079       .  S
Fe91         O96   2.082       .  S
Fe91        O103   2.071       .  S
Fe91         O92   2.071       .  S
Fe91        O100   1.961       .  S
O92          C99   1.272       .  A
O93         C107   1.269       .  A
O94          C99   1.274       .  A
O95          C98   1.271       .  A
O96         C108   1.270       .  A
O97         C110   1.266       .  A
C98         O103   1.270       .  A
C98        C1837   1.474       .  S
C99        C1825   1.487       .  S
O101        C104   1.267       .  A
O102        C104   1.273       .  A
C104       C1948   1.484       .  S
O105        C110   1.272       .  A
O106        C108   1.266       .  A
C107        O109   1.270       .  A
C107       C2056   1.476       .  S
C108       C1984   1.470       .  S
C110       C1873   1.466       .  S
Fe111       O127   2.084       .  S
Fe111       O117   2.073       .  S
Fe111       O124   2.082       .  S
Fe111       O116   2.077       .  S
Fe111       O122   1.976       .  S
Fe112       O115   2.048       .  S
Fe112       O119   2.064       .  S
Fe112       O123   2.046       .  S
Fe112       O128   2.067       .  S
Fe112       O122   1.948       .  S
Fe113       O131   2.090       .  S
Fe113       O118   2.070       .  S
Fe113       O125   2.066       .  S
Fe113       O114   2.081       .  S
Fe113       O122   1.976       .  S
O114        C121   1.270       .  A
O115        C129   1.266       .  A
O116        C121   1.269       .  A
O117        C120   1.274       .  A
O118        C130   1.267       .  A
O119        C132   1.268       .  A
C120        O125   1.272       .  A
C120       C1801   1.486       .  S
C121       C1816   1.483       .  S
O123        C126   1.268       .  A
O124        C126   1.274       .  A
C126       C1972   1.463       .  S
O127        C132   1.268       .  A
O128        C130   1.270       .  A
C129        O131   1.272       .  A
C129       C1861   1.474       .  S
C130       C1921   1.476       .  S
C132       C2065   1.485       .  S
Fe133       O149   2.101       .  S
Fe133       O139   2.078       .  S
Fe133       O146   2.086       .  S
Fe133       O138   2.082       .  S
Fe133       O144   1.965       .  S
Fe134       O137   2.051       .  S
Fe134       O141   2.045       .  S
Fe134       O145   2.045       .  S
Fe134       O150   2.057       .  S
Fe134       O144   1.936       .  S
Fe135       O153   2.082       .  S
Fe135       O140   2.075       .  S
Fe135       O147   2.064       .  S
Fe135       O136   2.073       .  S
Fe135       O144   1.962       .  S
O136        C143   1.271       .  A
O137        C151   1.267       .  A
O138        C143   1.273       .  A
O139        C142   1.275   1_556  A
O140        C152   1.268       .  A
O141        C154   1.267       .  A
C142        O147   1.270   1_554  A
C142       C1852   1.482       .  S
C143       C1789   1.479       .  S
O145        C148   1.266       .  A
O146        C148   1.273       .  A
C148       C1744   1.466       .  S
O149        C154   1.273       .  A
O150        C152   1.268       .  A
C151        O153   1.271       .  A
C151       C1780   1.473       .  S
C152       C1753   1.478       .  S
C154       C1765   1.484       .  S
Fe155       O171   2.085       .  S
Fe155       O161   2.066       .  S
Fe155       O168   2.080       .  S
Fe155       O160   2.080       .  S
Fe155       O166   1.982       .  S
Fe156       O159   2.060       .  S
Fe156       O163   2.035       .  S
Fe156       O167   2.054       .  S
Fe156       O172   2.040       .  S
Fe156       O166   1.955       .  S
Fe157       O175   2.061       .  S
Fe157       O162   2.096       .  S
Fe157       O169   2.084       .  S
Fe157       O158   2.052       .  S
Fe157       O166   1.987       .  S
O158        C165   1.267       .  A
O159        C173   1.267       .  A
O160        C165   1.273       .  A
O161        C164   1.269       .  A
O162        C174   1.274       .  A
O163        C176   1.264       .  A
C164        O169   1.272       .  A
C164       C1732   1.476       .  S
C165       C1912   1.490       .  S
O167        C170   1.267       .  A
O168        C170   1.269       .  A
C170       C1696   1.478       .  S
O171        C176   1.272       .  A
O172        C174   1.265       .  A
C173        O175   1.264       .  A
C173       C1705   1.470       .  S
C174       C1720   1.476       .  S
C176       C1756   1.463       .  S
Fe177       O193   2.083       .  S
Fe177       O183   2.080       .  S
Fe177       O190   2.093       .  S
Fe177       O182   2.073       .  S
Fe177       O188   1.965       .  S
Fe178       O181   2.058       .  S
Fe178       O185   2.049       .  S
Fe178       O189   2.058       .  S
Fe178       O194   2.052       .  S
Fe178       O188   1.938       .  S
Fe179       O197   2.074       .  S
Fe179       O184   2.087       .  S
Fe179       O191   2.081       .  S
Fe179       O180   2.071       .  S
Fe179       O188   1.969       .  S
O180        C187   1.271       .  A
O181        C195   1.269       .  A
O182        C187   1.274       .  A
O183        C186   1.271       .  A
O184        C196   1.273       .  A
O185        C198   1.268       .  A
C186        O191   1.272       .  A
C186       C1681   1.484       .  S
C187       C1828   1.485       .  S
O189        C192   1.268       .  A
O190        C192   1.271       .  A
C192       C1660   1.484       .  S
O193        C198   1.273       .  A
O194        C196   1.268       .  A
C195        O197   1.268       .  A
C195       C1741   1.478       .  S
C196       C1693   1.474       .  S
C198       C1669   1.466       .  S
Fe199       O215   2.090       .  S
Fe199       O205   2.076       .  S
Fe199       O212   2.085       .  S
Fe199       O204   2.075       .  S
Fe199       O210   1.973       .  S
Fe200       O203   2.052       .  S
Fe200       O207   2.056       .  S
Fe200       O211   2.041       .  S
Fe200       O216   2.062       .  S
Fe200       O210   1.944       .  S
Fe201       O219   2.088       .  S
Fe201       O206   2.073       .  S
Fe201       O213   2.067       .  S
Fe201       O202   2.077       .  S
Fe201       O210   1.971       .  S
O202        C209   1.271       .  A
O203        C217   1.268       .  A
O204        C209   1.270       .  A
O205        C208   1.275   1_556  A
O206        C218   1.267       .  A
O207        C220   1.268       .  A
C208        O213   1.270   1_554  A
C208       C2017   1.486       .  S
C209       C1645   1.478       .  S
O211        C214   1.266       .  A
O212        C214   1.273       .  A
C214       C1633   1.463       .  S
O215        C220   1.270       .  A
O216        C218   1.268       .  A
C217        O219   1.273       .  A
C217       C1768   1.477       .  S
C218       C1672   1.480       .  S
C220       C1621   1.484       .  S
Fe221       O237   2.082       .  S
Fe221       O227   2.072       .  S
Fe221       O234   2.083       .  S
Fe221       O226   2.076       .  S
Fe221       O232   1.985       .  S
Fe222       O225   2.067       .  S
Fe222       O229   2.039       .  S
Fe222       O233   2.058       .  S
Fe222       O238   2.046       .  S
Fe222       O232   1.954       .  S
Fe223       O241   2.058       .  S
Fe223       O228   2.100       .  S
Fe223       O235   2.086       .  S
Fe223       O224   2.050       .  S
Fe223       O232   1.984       .  S
O224        C231   1.266       .  A
O225        C239   1.269       .  A
O226        C231   1.272       .  A
O227        C230   1.270       .  A
O228        C240   1.275       .  A
O229        C242   1.264       .  A
C230        O235   1.273       .  A
C230       C1612   1.479       .  S
C231       C1960   1.479       .  S
O233        C236   1.268       .  A
O234        C236   1.270       .  A
C236       C1717   1.478       .  S
O237        C242   1.271       .  A
O238        C240   1.266       .  A
C239        O241   1.264       .  A
C239       C1636   1.475       .  S
C240       C1657   1.480       .  S
C242       C1600   1.463       .  S
Fe243       O259   2.086       .  S
Fe243       O249   2.066       .  S
Fe243       O256   2.079       .  S
Fe243       O248   2.076       .  S
Fe243       O254   1.968       .  S
Fe244       O247   2.050       .  S
Fe244       O251   2.053       .  S
Fe244       O255   2.045       .  S
Fe244       O260   2.059       .  S
Fe244       O254   1.941       .  S
Fe245       O263   2.096       .  S
Fe245       O250   2.074       .  S
Fe245       O257   2.070       .  S
Fe245       O246   2.085       .  S
Fe245       O254   1.965       .  S
O246        C253   1.272       .  A
O247        C261   1.266       .  A
O248        C253   1.269       .  A
O249        C252   1.273   1_556  A
O250        C262   1.269       .  A
O251        C264   1.268       .  A
C252        O257   1.272   1_554  A
C252       C1804   1.482       .  S
C253       C1585   1.482       .  S
O255        C258   1.266       .  A
O256        C258   1.272       .  A
C258       C1708   1.462       .  S
O259        C264   1.270       .  A
O260        C262   1.269       .  A
C261        O263   1.274       .  A
C261       C1624   1.481       .  S
C262       C1597   1.476       .  S
C264       C1777   1.481       .  S
Fe265       O281   2.094       .  S
Fe265       O271   2.077       .  S
Fe265       O278   2.093       .  S
Fe265       O270   2.079       .  S
Fe265       O276   1.968       .  S
Fe266       O269   2.051       .  S
Fe266       O273   2.052       .  S
Fe266       O277   2.045       .  S
Fe266       O282   2.059       .  S
Fe266       O276   1.939       .  S
Fe267       O285   2.093       .  S
Fe267       O272   2.062       .  S
Fe267       O279   2.054       .  S
Fe267       O268   2.073       .  S
Fe267       O276   1.970       .  S
O268        C275   1.270       .  A
O269        C283   1.266       .  A
O270        C275   1.271       .  A
O271        C274   1.274       .  A
O272        C284   1.266       .  A
O273        C286   1.269       .  A
C274        O279   1.268       .  A
C274       C1513   1.481       .  S
C275       C1576   1.475       .  S
O277        C280   1.265       .  A
O278        C280   1.274       .  A
C280       C1549   1.470       .  S
O281        C286   1.272       .  A
O282        C284   1.269       .  A
C283        O285   1.273       .  A
C283       C1561   1.480       .  S
C284       C1537   1.470       .  S
C286       C1528   1.482       .  S
Fe287       O303   2.081       .  S
Fe287       O293   2.081       .  S
Fe287       O300   2.089       .  S
Fe287       O292   2.074       .  S
Fe287       O298   1.965       .  S
Fe288       O291   2.065       .  S
Fe288       O295   2.041       .  S
Fe288       O299   2.056       .  S
Fe288       O304   2.044       .  S
Fe288       O298   1.941       .  S
Fe289       O307   2.080       .  S
Fe289       O294   2.087       .  S
Fe289       O301   2.081       .  S
Fe289       O290   2.076       .  S
Fe289       O298   1.965       .  S
O290        C297   1.273       .  A
O291        C305   1.269       .  A
O292        C297   1.274       .  A
O293        C296   1.272       .  A
O294        C306   1.272       .  A
O295        C308   1.266       .  A
C296        O301   1.272       .  A
C296       C1609   1.484       .  S
C297       C1465   1.493       .  S
O299        C302   1.268       .  A
O300        C302   1.271       .  A
C302       C1489   1.481       .  S
O303        C308   1.273       .  A
O304        C306   1.266       .  A
C305        O307   1.269       .  A
C305       C1552   1.480       .  S
C306       C1501   1.470       .  S
C308       C1480   1.461       .  S
Fe309       O325   2.078       .  S
Fe309       O315   2.088       .  S
Fe309       O322   2.102       .  S
Fe309       O314   2.075       .  S
Fe309       O320   1.972       .  S
Fe310       O313   2.057       .  S
Fe310       O317   2.046       .  S
Fe310       O321   2.056       .  S
Fe310       O326   2.049       .  S
Fe310       O320   1.940       .  S
Fe311       O329   2.081       .  S
Fe311       O316   2.085       .  S
Fe311       O323   2.073       .  S
Fe311       O312   2.072       .  S
Fe311       O320   1.969       .  S
O312        C319   1.273       .  A
O313        C327   1.268       .  A
O314        C319   1.275       .  A
O315        C318   1.272       .  A
O316        C328   1.272       .  A
O317        C330   1.268       .  A
C318        O323   1.270       .  A
C318       C1684   1.480       .  S
C319       C1417   1.485       .  S
O321        C324   1.267       .  A
O322        C324   1.272       .  A
C324       C1441   1.487       .  S
O325        C330   1.272       .  A
O326        C328   1.267       .  A
C327        O329   1.269       .  A
C327       C1453   1.480       .  S
C328       C1492   1.472       .  S
C330       C1429   1.461       .  S
Fe331       O347   2.098       .  S
Fe331       O337   2.074       .  S
Fe331       O344   2.085       .  S
Fe331       O336   2.078       .  S
Fe331       O342   1.961       .  S
Fe332       O335   2.049       .  S
Fe332       O339   2.062       .  S
Fe332       O343   2.057       .  S
Fe332       O348   2.057       .  S
Fe332       O342   1.938       .  S
Fe333       O351   2.095       .  S
Fe333       O338   2.067       .  S
Fe333       O345   2.070       .  S
Fe333       O334   2.084       .  S
Fe333       O342   1.966       .  S
O334        C341   1.270       .  A
O335        C349   1.267       .  A
O336        C341   1.268       .  A
O337        C340   1.278       .  A
O338        C350   1.268       .  A
O339        C352   1.267       .  A
C340        O345   1.273       .  A
C340       C1381   1.485       .  S
C341       C1405   1.481       .  S
O343        C346   1.270       .  A
O344        C346   1.275       .  A
C346       C1456   1.470       .  S
O347        C352   1.271       .  A
O348        C350   1.269       .  A
C349        O351   1.273       .  A
C349       C1525   1.479       .  S
C350       C1477   1.473       .  S
C352       C1393   1.489       .  S
Fe353       O369   2.074       .  S
Fe353       O359   2.055       .  S
Fe353       O366   2.076       .  S
Fe353       O358   2.064       .  S
Fe353       O364   1.975       .  S
Fe354       O357   2.055       .  S
Fe354       O361   2.047       .  S
Fe354       O365   2.057       .  S
Fe354       O370   2.041       .  S
Fe354       O364   1.951       .  S
Fe355       O373   2.071       .  S
Fe355       O360   2.106       .  S
Fe355       O367   2.095       .  S
Fe355       O356   2.066       .  S
Fe355       O364   1.983       .  S
O356        C363   1.272       .  A
O357        C371   1.269       .  A
O358        C363   1.273       .  A
O359        C362   1.266       .  A
O360        C372   1.275       .  A
O361        C374   1.267       .  A
C362        O367   1.273       .  A
C362       C1729   1.492       .  S
C363       C1357   1.485       .  S
O365        C368   1.266       .  A
O366        C368   1.267       .  A
C368       C1504   1.477       .  S
O369        C374   1.270       .  A
O370        C372   1.264       .  A
C371        O373   1.268       .  A
C371       C1372   1.477       .  S
C372       C1444   1.482       .  S
C374       C1540   1.460       .  S
Fe375       O391   2.092       .  S
Fe375       O381   2.072       .  S
Fe375       O388   2.083       .  S
Fe375       O380   2.080       .  S
Fe375       O386   1.966       .  S
Fe376       O379   2.053       .  S
Fe376       O383   2.061       .  S
Fe376       O387   2.044       .  S
Fe376       O392   2.064       .  S
Fe376       O386   1.939       .  S
Fe377       O395   2.102       .  S
Fe377       O382   2.061       .  S
Fe377       O389   2.062       .  S
Fe377       O378   2.093       .  S
Fe377       O386   1.966       .  S
O378        C385   1.274       .  A
O379        C393   1.267       .  A
O380        C385   1.271       .  A
O381        C384   1.274       .  A
O382        C394   1.265       .  A
O383        C396   1.269       .  A
C384        O389   1.269       .  A
C384       C1336   1.482       .  S
C385       C1348   1.489       .  S
O387        C390   1.267       .  A
O388        C390   1.273       .  A
C390       C1369   1.466       .  S
O391        C396   1.271       .  A
O392        C394   1.269       .  A
C393        O395   1.276       .  A
C393       C1396   1.480       .  S
C394       C1432   1.470       .  S
C396       C1564   1.488       .  S
Fe397       O413   2.085       .  S
Fe397       O403   2.077       .  S
Fe397       O410   2.087       .  S
Fe397       O402   2.074   1_554  S
Fe397       O408   1.964       .  S
Fe398       O401   2.063       .  S
Fe398       O405   2.048       .  S
Fe398       O409   2.058       .  S
Fe398       O414   2.044       .  S
Fe398       O408   1.941       .  S
Fe399       O417   2.070       .  S
Fe399       O404   2.100       .  S
Fe399       O411   2.090       .  S
Fe399       O400   2.073   1_554  S
Fe399       O408   1.965       .  S
O400        C407   1.274       .  A
O401        C415   1.270       .  A
O402        C407   1.276       .  A
O403        C406   1.268       .  A
O404        C416   1.274       .  A
O405        C418   1.267       .  A
C406        O411   1.272       .  A
C406       C1273   1.485       .  S
C407       C1420   1.489       .  S
O409        C412   1.266       .  A
O410        C412   1.269       .  A
C412       C1285   1.480       .  S
O413        C418   1.274       .  A
O414        C416   1.265       .  A
C415        O417   1.269       .  A
C415       C1312   1.478       .  S
C416       C1324   1.481       .  S
C418       C1300   1.466       .  S
Fe419       O435   2.082       .  S
Fe419       O425   2.081       .  S
Fe419       O432   2.087       .  S
Fe419       O424   2.072       .  S
Fe419       O430   1.984       .  S
Fe420       O423   2.037       .  S
Fe420       O427   2.054       .  S
Fe420       O431   2.031       .  S
Fe420       O436   2.061       .  S
Fe420       O430   1.954       .  S
Fe421       O439   2.100       .  S
Fe421       O426   2.064       .  S
Fe421       O433   2.047       .  S
Fe421       O422   2.086       .  S
Fe421       O430   1.989       .  S
O422        C429   1.273       .  A
O423        C437   1.265       .  A
O424        C429   1.270       .  A
O425        C428   1.273       .  A
O426        C438   1.264       .  A
O427        C440   1.268       .  A
C428        O433   1.264       .  A
C428       C1333   1.485       .  S
C429       C2080   1.479       .  S
O431        C434   1.264       .  A
O432        C434   1.273       .  A
C434       C1309   1.462       .  S
O435        C440   1.269       .  A
O436        C438   1.266       .  A
C437        O439   1.275       .  A
C437       C1264   1.476       .  S
C438       C1252   1.472       .  S
C440       C1237   1.483       .  S
Fe441       O457   2.095       .  S
Fe441       O447   2.064       .  S
Fe441       O454   2.074       .  S
Fe441       O446   2.080       .  S
Fe441       O452   1.962       .  S
Fe442       O445   2.053       .  S
Fe442       O449   2.057       .  S
Fe442       O453   2.048       .  S
Fe442       O458   2.063       .  S
Fe442       O452   1.932       .  S
Fe443       O461   2.096       .  S
Fe443       O448   2.076       .  S
Fe443       O455   2.072       .  S
Fe443       O444   2.084       .  S
Fe443       O452   1.957       .  S
O444        C451   1.272       .  A
O445        C459   1.268       .  A
O446        C451   1.271       .  A
O447        C450   1.273       .  A
O448        C460   1.269       .  A
O449        C462   1.267       .  A
C450        O455   1.272       .  A
C450       C1384   1.481       .  S
C451       C1813   1.480       .  S
O453        C456   1.268       .  A
O454        C456   1.270       .  A
C456       C1228   1.461       .  S
O457        C462   1.272       .  A
O458        C460   1.270       .  A
C459        O461   1.275       .  A
C459       C1240   1.481       .  S
C460       C1297   1.480       .  S
C462       C1213   1.478       .  S
Fe463       O479   2.084       .  S
Fe463       O469   2.076       .  S
Fe463       O476   2.093       .  S
Fe463       O468   2.080   1_554  S
Fe463       O474   1.970       .  S
Fe464       O467   2.055       .  S
Fe464       O471   2.047       .  S
Fe464       O475   2.053       .  S
Fe464       O480   2.047       .  S
Fe464       O474   1.946       .  S
Fe465       O483   2.067       .  S
Fe465       O470   2.089       .  S
Fe465       O477   2.081       .  S
Fe465       O466   2.065   1_554  S
Fe465       O474   1.972       .  S
O466        C473   1.271       .  A
O467        C481   1.268       .  A
O468        C473   1.276       .  A
O469        C472   1.269       .  A
O470        C482   1.272       .  A
O471        C484   1.266       .  A
C472        O477   1.271       .  A
C472       C1204   1.479       .  S
C473       C1468   1.481       .  S
O475        C478   1.267       .  A
O476        C478   1.272       .  A
C478       C1192   1.484       .  S
O479        C484   1.272       .  A
O480        C482   1.265       .  A
C481        O483   1.267       .  A
C481       C1225   1.473       .  S
C482       C1288   1.473       .  S
C484       C1177   1.466       .  S
Fe485       O501   2.086       .  S
Fe485       O491   2.076       .  S
Fe485       O498   2.093       .  S
Fe485       O490   2.074   1_554  S
Fe485       O496   1.983       .  S
Fe486       O489   2.056       .  S
Fe486       O493   2.039       .  S
Fe486       O497   2.052       .  S
Fe486       O502   2.044       .  S
Fe486       O496   1.953       .  S
Fe487       O505   2.067       .  S
Fe487       O492   2.096       .  S
Fe487       O499   2.083       .  S
Fe487       O488   2.057   1_554  S
Fe487       O496   1.982       .  S
O488        C495   1.269       .  A
O489        C503   1.266       .  A
O490        C495   1.273       .  A
O491        C494   1.271       .  A
O492        C504   1.274       .  A
O493        C506   1.265       .  A
C494        O499   1.272       .  A
C494       C1168   1.481       .  S
C495       C1360   1.483       .  S
O497        C500   1.267       .  A
O498        C500   1.271       .  A
C500       C1321   1.483       .  S
O501        C506   1.272       .  A
O502        C504   1.266       .  A
C503        O505   1.266       .  A
C503       C1153   1.472       .  S
C504       C1189   1.478       .  S
C506       C1249   1.465       .  S
Fe507       O523   2.085       .  S
Fe507       O513   2.070       .  S
Fe507       O520   2.079       .  S
Fe507       O512   2.074       .  S
Fe507       O518   1.971       .  S
Fe508       O511   2.051       .  S
Fe508       O515   2.060       .  S
Fe508       O519   2.052       .  S
Fe508       O524   2.063       .  S
Fe508       O518   1.947       .  S
Fe509       O527   2.094       .  S
Fe509       O514   2.064       .  S
Fe509       O521   2.065       .  S
Fe509       O510   2.086       .  S
Fe509       O518   1.971       .  S
O510        C517   1.271       .  A
O511        C525   1.267       .  A
O512        C517   1.268       .  A
O513        C516   1.275       .  A
O514        C526   1.266       .  A
O515        C528   1.266       .  A
C516        O521   1.272       .  A
C516       C1516   1.483       .  S
C517       C1885   1.484       .  S
O519        C522   1.269       .  A
O520        C522   1.273       .  A
C522       C1156   1.463       .  S
O523        C528   1.268       .  A
O524        C526   1.270       .  A
C525        O527   1.274       .  A
C525       C1216   1.475       .  S
C526       C1180   1.475       .  S
C528       C1261   1.483       .  S
Fe529       O545   2.084       .  S
Fe529       O535   2.081       .  S
Fe529       O542   2.094       .  S
Fe529       O534   2.071       .  S
Fe529       O540   1.969       .  S
Fe530       O533   2.055       .  S
Fe530       O537   2.037       .  S
Fe530       O541   2.055       .  S
Fe530       O546   2.044   1_655  S
Fe530       O540   1.941       .  S
Fe531       O549   2.072   1_655  S
Fe531       O536   2.099   1_655  S
Fe531       O543   2.085       .  S
Fe531       O532   2.060       .  S
Fe531       O540   1.970       .  S
O532        C539   1.269       .  A
O533        C547   1.268   1_655  A
O534        C539   1.274       .  A
O535        C538   1.271       .  A
O536        C548   1.275       .  A
O537        C550   1.265       .  A
C538        O543   1.273       .  A
C538       C2008   1.482       .  S
C539       C1093   1.484       .  S
O541        C544   1.268       .  A
O542        C544   1.271       .  A
C544       C1129   1.485       .  S
O545        C550   1.273       .  A
O546        C548   1.266       .  A
C547        O549   1.267       .  A
C547       C1117   1.473       .  S
C548       C1144   1.479       .  S
C550       C1108   1.462       .  S
Fe551       O567   2.092       .  S
Fe551       O557   2.070       .  S
Fe551       O564   2.082       .  S
Fe551       O556   2.071       .  S
Fe551       O562   1.975       .  S
Fe552       O555   2.045       .  S
Fe552       O559   2.058       .  S
Fe552       O563   2.042       .  S
Fe552       O568   2.060       .  S
Fe552       O562   1.946       .  S
Fe553       O571   2.096       .  S
Fe553       O558   2.076       .  S
Fe553       O565   2.071       .  S
Fe553       O554   2.080       .  S
Fe553       O562   1.975       .  S
O554        C561   1.271       .  A
O555        C569   1.265       .  A
O556        C561   1.269       .  A
O557        C560   1.273       .  A
O558        C570   1.269       .  A
O559        C572   1.268       .  A
C560        O565   1.273       .  A
C560       C1048   1.488       .  S
C561       C1573   1.480       .  S
O563        C566   1.265       .  A
O564        C566   1.271       .  A
C566       C1120   1.463       .  S
O567        C572   1.271       .  A
O568        C570   1.269       .  A
C569        O571   1.274       .  A
C569       C1084   1.478       .  S
C570       C1060   1.479       .  S
C572       C1069   1.484   1_455  S
Fe573       O589   2.087       .  S
Fe573       O579   2.074       .  S
Fe573       O586   2.088       .  S
Fe573       O578   2.077       .  S
Fe573       O584   1.970       .  S
Fe574       O577   2.065   1_545  S
Fe574       O581   2.049       .  S
Fe574       O585   2.062       .  S
Fe574       O590   2.051   1_545  S
Fe574       O584   1.945       .  S
Fe575       O593   2.069       .  S
Fe575       O580   2.088       .  S
Fe575       O587   2.077   1_565  S
Fe575       O576   2.065       .  S
Fe575       O584   1.972   1_565  S
O576        C583   1.271   1_565  A
O577        C591   1.269       .  A
O578        C583   1.275       .  A
O579        C582   1.270       .  A
O580        C592   1.273       .  A
O581        C594   1.267       .  A
C582        O587   1.271       .  A
C582       C1840   1.480       .  S
C583       C1009   1.486       .  S
O585        C588   1.269       .  A
O586        C588   1.270       .  A
C588       C1141   1.486       .  S
O589        C594   1.274       .  A
O590        C592   1.267       .  A
C591        O593   1.267       .  A
C591       C1024   1.478       .  S
C592       C1036   1.475       .  S
C594       C1057   1.468       .  S
Fe595       O611   2.093       .  S
Fe595       O601   2.075       .  S
Fe595       O608   2.084       .  S
Fe595       O600   2.083       .  S
Fe595       O606   1.968       .  S
Fe596       O599   2.050   1_565  S
Fe596       O603   2.055       .  S
Fe596       O607   2.052       .  S
Fe596       O612   2.059   1_565  S
Fe596       O606   1.943       .  S
Fe597       O615   2.100       .  S
Fe597       O602   2.066       .  S
Fe597       O609   2.064       .  S
Fe597       O598   2.087   1_545  S
Fe597       O606   1.969   1_545  S
O598        C605   1.272       .  A
O599        C613   1.267       .  A
O600        C605   1.269       .  A
O601        C604   1.276       .  A
O602        C614   1.267       .  A
O603        C616   1.266       .  A
C604        O609   1.271   1_565  A
C604        C973   1.487       .  S
C605       C1345   1.485       .  S
O607        C610   1.269       .  A
O608        C610   1.275       .  A
C610        C985   1.466       .  S
O611        C616   1.270       .  A
O612        C614   1.269       .  A
C613        O615   1.275       .  A
C613       C1072   1.481       .  S
C614       C1105   1.475       .  S
C616        C997   1.484       .  S
Fe617       O633   2.083       .  S
Fe617       O623   2.079       .  S
Fe617       O630   2.095       .  S
Fe617       O622   2.073       .  S
Fe617       O628   1.970       .  S
Fe618       O621   2.058       .  S
Fe618       O625   2.047       .  S
Fe618       O629   2.052       .  S
Fe618       O634   2.050       .  S
Fe618       O628   1.939       .  S
Fe619       O637   2.081       .  S
Fe619       O624   2.093       .  S
Fe619       O631   2.082       .  S
Fe619       O620   2.075       .  S
Fe619       O628   1.964       .  S
O620        C627   1.274       .  A
O621        C635   1.269       .  A
O622        C627   1.274       .  A
O623        C626   1.270       .  A
O624        C636   1.273       .  A
O625        C638   1.267       .  A
C626        O631   1.271       .  A
C626       C1900   1.479       .  S
C627        C952   1.485       .  S
O629        C632   1.267       .  A
O630        C632   1.272       .  A
C632       C1033   1.482       .  S
O633        C638   1.272       .  A
O634        C636   1.266       .  A
C635        O637   1.270       .  A
C635        C988   1.478       .  S
C636       C1132   1.479       .  S
C638        C961   1.466       .  S
Fe639       O655   2.095       .  S
Fe639       O645   2.070       .  S
Fe639       O652   2.080       .  S
Fe639       O644   2.085       .  S
Fe639       O650   1.969   1_455  S
Fe640       O643   2.048       .  S
Fe640       O647   2.055   1_655  S
Fe640       O651   2.048   1_655  S
Fe640       O656   2.058       .  S
Fe640       O650   1.941       .  S
Fe641       O659   2.091       .  S
Fe641       O646   2.075       .  S
Fe641       O653   2.069       .  S
Fe641       O642   2.082       .  S
Fe641       O650   1.969       .  S
O642        C649   1.272   1_655  A
O643        C657   1.266       .  A
O644        C649   1.271       .  A
O645        C648   1.274   1_455  A
O646        C658   1.268       .  A
O647        C660   1.266       .  A
C648        O653   1.271       .  A
C648        C937   1.484       .  S
C649       C1408   1.487       .  S
O651        C654   1.268       .  A
O652        C654   1.273       .  A
C654       C1021   1.463       .  S
O655        C660   1.271       .  A
O656        C658   1.269       .  A
C657        O659   1.273       .  A
C657       C1000   1.474       .  S
C658        C964   1.478       .  S
C660       C1081   1.485       .  S
Fe661       O677   2.090       .  S
Fe661       O667   2.070       .  S
Fe661       O674   2.080       .  S
Fe661       O666   2.081       .  S
Fe661       O672   1.968       .  S
Fe662       O665   2.052   1_655  S
Fe662       O669   2.058       .  S
Fe662       O673   2.050       .  S
Fe662       O678   2.060       .  S
Fe662       O672   1.938       .  S
Fe663       O681   2.092   1_655  S
Fe663       O668   2.072   1_655  S
Fe663       O675   2.068       .  S
Fe663       O664   2.082       .  S
Fe663       O672   1.966       .  S
O664        C671   1.271       .  A
O665        C679   1.268       .  A
O666        C671   1.270       .  A
O667        C670   1.274       .  A
O668        C680   1.268       .  A
O669        C682   1.267       .  A
C670        O675   1.272       .  A
C670        C940   1.481       .  S
C671       C1588   1.482       .  S
O673        C676   1.269       .  A
O674        C676   1.273       .  A
C676        C889   1.466       .  S
O677        C682   1.270       .  A
O678        C680   1.269   1_655  A
C679        O681   1.273       .  A
C679        C925   1.477       .  S
C680        C913   1.475       .  S
C682        C904   1.486       .  S
Fe683       O699   2.089       .  S
Fe683       O689   2.081       .  S
Fe683       O696   2.092       .  S
Fe683       O688   2.082       .  S
Fe683       O694   1.973       .  S
Fe684       O687   2.058   1_565  S
Fe684       O691   2.037       .  S
Fe684       O695   2.052       .  S
Fe684       O700   2.046   1_565  S
Fe684       O694   1.946       .  S
Fe685       O703   2.066       .  S
Fe685       O690   2.102       .  S
Fe685       O697   2.091   1_545  S
Fe685       O686   2.057       .  S
Fe685       O694   1.972   1_545  S
O686        C693   1.268   1_545  A
O687        C701   1.267       .  A
O688        C693   1.275       .  A
O689        C692   1.272       .  A
O690        C702   1.276       .  A
O691        C704   1.265       .  A
C692        O697   1.275       .  A
C692       C1276   1.486       .  S
C693       C1012   1.485       .  S
O695        C698   1.267       .  A
O696        C698   1.271       .  A
C698        C853   1.485   1_455  S
O699        C704   1.274       .  A
O700        C702   1.266       .  A
C701        O703   1.265       .  A
C701        C865   1.470       .  S
C702        C877   1.479       .  S
C704        C916   1.464       .  S
Fe705       O721   2.093       .  S
Fe705       O711   2.067       .  S
Fe705       O718   2.079       .  S
Fe705       O710   2.071       .  S
Fe705       O716   1.974       .  S
Fe706       O709   2.046       .  S
Fe706       O713   2.051       .  S
Fe706       O717   2.050       .  S
Fe706       O722   2.058       .  S
Fe706       O716   1.943       .  S
Fe707       O725   2.096       .  S
Fe707       O712   2.079       .  S
Fe707       O719   2.074       .  S
Fe707       O708   2.079       .  S
Fe707       O716   1.972       .  S
O708        C715   1.270       .  A
O709        C723   1.266       .  A
O710        C715   1.268       .  A
O711        C714   1.274       .  A
O712        C724   1.270       .  A
O713        C726   1.266       .  A
C714        O719   1.274       .  A
C714       C1045   1.484       .  S
C715       C1792   1.476       .  S
O717        C720   1.268       .  A
O718        C720   1.272       .  A
C720        C868   1.463       .  S
O721        C726   1.270       .  A
O722        C724   1.269       .  A
C723        O725   1.274       .  A
C723        C841   1.481       .  S
C724        C829   1.483       .  S
C726        C928   1.482       .  S
Fe727       O743   2.095       .  S
Fe727       O733   2.072       .  S
Fe727       O740   2.082       .  S
Fe727       O732   2.080       .  S
Fe727       O738   1.970       .  S
Fe728       O731   2.048   1_545  S
Fe728       O735   2.055       .  S
Fe728       O739   2.039       .  S
Fe728       O744   2.059   1_545  S
Fe728       O738   1.938       .  S
Fe729       O747   2.088       .  S
Fe729       O734   2.070       .  S
Fe729       O741   2.058       .  S
Fe729       O730   2.077   1_565  S
Fe729       O738   1.968   1_565  S
O730        C737   1.272       .  A
O731        C745   1.266       .  A
O732        C737   1.272       .  A
O733        C736   1.273       .  A
O734        C746   1.267       .  A
O735        C748   1.269       .  A
C736        O741   1.269   1_545  A
C736        C976   1.475       .  S
C737       C1648   1.476       .  S
O739        C742   1.265       .  A
O740        C742   1.272       .  A
C742        C817   1.463       .  S
O743        C748   1.272       .  A
O744        C746   1.268       .  A
C745        O747   1.273       .  A
C745        C901   1.473       .  S
C746        C805   1.474       .  S
C748        C844   1.486       .  S
Fe749       O765   2.087       .  S
Fe749       O755   2.077       .  S
Fe749       O762   2.092       .  S
Fe749       O754   2.076       .  S
Fe749       O760   1.971   1_455  S
Fe750       O753   2.060       .  S
Fe750       O757   2.046   1_655  S
Fe750       O761   2.061   1_655  S
Fe750       O766   2.044       .  S
Fe750       O760   1.945       .  S
Fe751       O769   2.062       .  S
Fe751       O756   2.096       .  S
Fe751       O763   2.083       .  S
Fe751       O752   2.057       .  S
Fe751       O760   1.977       .  S
O752        C759   1.269       .  A
O753        C767   1.270       .  A
O754        C759   1.276   1_455  A
O755        C758   1.270       .  A
O756        C768   1.273       .  A
O757        C770   1.267       .  A
C758        O763   1.271   1_455  A
C758       C1201   1.486       .  S
C759       C1096   1.479       .  S
O761        C764   1.268       .  A
O762        C764   1.271       .  A
C764        C880   1.487       .  S
O765        C770   1.274       .  A
O766        C768   1.265       .  A
C767        O769   1.266       .  A
C767        C820   1.474       .  S
C768        C796   1.477       .  S
C770        C832   1.468       .  S
Fe771       O787   2.081       .  S
Fe771       O777   2.077       .  S
Fe771       O784   2.094       .  S
Fe771       O776   2.068       .  S
Fe771       O782   1.966       .  S
Fe772       O775   2.052       .  S
Fe772       O779   2.047       .  S
Fe772       O783   2.054       .  S
Fe772       O788   2.045       .  S
Fe772       O782   1.937       .  S
Fe773       O791   2.078       .  S
Fe773       O778   2.096       .  S
Fe773       O785   2.084       .  S
Fe773       O774   2.080       .  S
Fe773       O782   1.967       .  S
O774        C781   1.275       .  A
O775        C789   1.269       .  A
O776        C781   1.274       .  A
O777        C780   1.269       .  A
O778        C790   1.274       .  A
O779        C792   1.267       .  A
C780        O785   1.271       .  A
C780       C1165   1.482       .  S
C781        C949   1.492       .  S
O783        C786   1.266       .  A
O784        C786   1.270       .  A
C786        C793   1.482       .  S
O787        C792   1.272       .  A
O788        C790   1.266       .  A
C789        O791   1.269       .  A
C789        C892   1.480       .  S
C790        C856   1.480       .  S
C792        C808   1.463       .  S
C793        C794   1.401       .  A
C793        C798   1.414       .  A
C794        C795   1.396   1_565  A
C794        H799   1.083       .  S
C795        C796   1.409       .  A
C795        O800   1.371       .  S
C796        C797   1.403       .  A
C797        C798   1.409   1_545  A
C797        H801   1.083       .  S
C798        O802   1.371       .  S
O800        H804   0.992       .  S
O802        H803   0.992       .  S
C805        C806   1.406       .  A
C805        C810   1.406   1_556  A
C806        C807   1.403   1_556  A
C806        H811   1.084       .  S
C807        C808   1.407       .  A
C807        O812   1.372   1_554  S
C808        C809   1.402       .  A
C809        C810   1.395       .  A
C809        H813   1.084       .  S
C810        O814   1.372       .  S
O812        H816   0.992       .  S
O814        H815   0.992   1_564  S
C817        C818   1.401       .  A
C817        C822   1.407       .  A
C818        C819   1.404   1_556  A
C818        H823   1.084       .  S
C819        C820   1.413       .  A
C819        O824   1.371       .  S
C820        C821   1.400   1_554  A
C821        C822   1.393       .  A
C821        H825   1.084       .  S
C822        O826   1.372       .  S
O824        H828   0.991       .  S
O826        H827   0.993       .  S
C829        C830   1.409       .  A
C829        C834   1.410   1_556  A
C830        C831   1.406   1_556  A
C830        H835   1.083       .  S
C831        C832   1.406       .  A
C831        O836   1.372       .  S
C832        C833   1.403       .  A
C833        C834   1.395       .  A
C833        H837   1.085       .  S
C834        O838   1.372       .  S
O836        H840   0.992       .  S
O838        H839   0.991       .  S
C841        C842   1.404       .  A
C841        C846   1.410       .  A
C842        C843   1.409   1_455  A
C842        H847   1.083       .  S
C843        C844   1.415       .  A
C843        O848   1.371       .  S
C844        C845   1.402       .  A
C845        C846   1.396   1_655  A
C845        H849   1.084       .  S
C846        O850   1.372       .  S
O848        H852   0.992       .  S
O850        H851   0.992       .  S
C853        C854   1.402       .  A
C853        C858   1.415       .  A
C854        C855   1.395       .  A
C854        H859   1.084       .  S
C855        C856   1.410       .  A
C855        O860   1.372       .  S
C856        C857   1.403       .  A
C857        C858   1.412       .  A
C857        H861   1.083       .  S
C858        O862   1.372       .  S
O860        H864   0.992       .  S
O862        H863   0.991       .  S
C865        C866   1.400   1_554  A
C865        C870   1.409       .  A
C866        C867   1.396       .  A
C866        H871   1.084       .  S
C867        C868   1.406       .  A
C867        O872   1.370       .  S
C868        C869   1.402       .  A
C869        C870   1.402   1_556  A
C869        H873   1.084       .  S
C870        O874   1.372       .  S
O872        H876   0.992       .  S
O874        H875   0.993       .  S
C877        C878   1.405       .  A
C877        C882   1.406       .  A
C878        C879   1.399       .  A
C878        H883   1.084       .  S
C879        C880   1.408       .  A
C879        O884   1.371       .  S
C880        C881   1.410       .  A
C881        C882   1.409       .  A
C881        H885   1.084       .  S
C882        O886   1.371       .  S
O884        H888   0.992       .  S
O886        H887   0.992       .  S
C889        C890   1.402       .  A
C889        C894   1.406       .  A
C890        C891   1.405   1_556  A
C890        H895   1.084       .  S
C891        C892   1.413       .  A
C891        O896   1.371       .  S
C892        C893   1.403   1_554  A
C893        C894   1.393       .  A
C893        H897   1.084       .  S
C894        O898   1.373       .  S
O896        H900   0.992       .  S
O898        H899   0.992       .  S
C901        C902   1.402       .  A
C901        C906   1.405       .  A
C902        C903   1.398       .  A
C902        H907   1.084       .  S
C903        C904   1.408       .  A
C903        O908   1.371       .  S
C904        C905   1.410       .  A
C905        C906   1.407       .  A
C905        H909   1.083       .  S
C906        O910   1.372       .  S
O908        H912   0.984       .  S
O910        H911   0.992       .  S
C913        C914   1.406       .  A
C913        C918   1.406       .  A
C914        C915   1.403       .  A
C914        H919   1.084       .  S
C915        C916   1.407   1_556  A
C915        O920   1.372       .  S
C916        C917   1.402       .  A
C917        C918   1.397   1_554  A
C917        H921   1.082       .  S
C918        O922   1.373   1_455  S
O920        H924   0.992   1_556  S
O922        H923   0.992   1_556  S
C925        C926   1.403       .  A
C925        C930   1.408       .  A
C926        C927   1.409   1_565  A
C926        H931   1.083       .  S
C927        C928   1.414       .  A
C927        O932   1.370       .  S
C928        C929   1.401       .  A
C929        C930   1.395   1_545  A
C929        H933   1.084       .  S
C930        O934   1.371       .  S
O932        H936   0.992       .  S
O934        H935   0.983       .  S
C937        C938   1.402   1_655  A
C937        C942   1.416       .  A
C938        C939   1.399       .  A
C938        H943   1.083       .  S
C939        C940   1.413   1_455  A
C939        O944   1.372       .  S
C940        C941   1.401       .  A
C941        C942   1.401       .  A
C941        H945   1.084       .  S
C942        O946   1.372       .  S
O944        H948   0.992       .  S
O946        H947   0.992       .  S
C949        C950   1.411       .  A
C949        C954   1.412       .  A
C950        C951   1.403       .  A
C950        H955   1.083       .  S
C951        C952   1.407       .  A
C951        O956   1.372       .  S
C952        C953   1.406       .  A
C953        C954   1.400       .  A
C953        H957   1.084       .  S
C954        O958   1.371       .  S
O956        H960   0.992       .  S
O958        H959   0.992       .  S
C961        C962   1.401       .  A
C961        C966   1.406       .  A
C962        C963   1.395       .  A
C962        H967   1.083       .  S
C963        C964   1.407       .  A
C963        O968   1.372       .  S
C964        C965   1.408       .  A
C965        C966   1.405       .  A
C965        H969   1.084       .  S
C966        O970   1.371       .  S
O968        H972   0.992       .  S
O970        H971   0.992       .  S
C973        C974   1.413   1_565  A
C973        C978   1.409       .  A
C974        C975   1.400       .  A
C974        H979   1.083       .  S
C975        C976   1.404       .  A
C975        O980   1.372       .  S
C976        C977   1.406   1_545  A
C977        C978   1.398       .  A
C977        H981   1.084       .  S
C978        O982   1.371       .  S
O980        H984   0.992       .  S
O982        H983   0.992       .  S
C985        C986   1.402       .  A
C985        C990   1.406       .  A
C986        C987   1.397       .  A
C986        H991   1.084       .  S
C987        C988   1.409       .  A
C987        O992   1.372       .  S
C988        C989   1.406       .  A
C989        C990   1.403       .  A
C989        H993   1.084       .  S
C990        O994   1.371       .  S
O992        H996   0.992       .  S
O994        H995   0.992       .  S
C997        C998   1.410       .  A
C997       C1002   1.408       .  A
C998        C999   1.408       .  A
C998       H1003   1.084       .  S
C999       C1000   1.406       .  A
C999       O1004   1.371       .  S
C1000      C1001   1.402       .  A
C1001      C1002   1.398       .  A
C1001      H1005   1.084       .  S
C1002      O1006   1.371       .  S
O1004      H1008   0.992       .  S
O1006      H1007   0.993       .  S
C1009      C1010   1.411   1_545  A
C1009      C1014   1.407       .  A
C1010      C1011   1.401       .  A
C1010      H1015   1.083       .  S
C1011      C1012   1.406       .  A
C1011      O1016   1.371       .  S
C1012      C1013   1.410   1_565  A
C1013      C1014   1.401       .  A
C1013      H1017   1.084       .  S
C1014      O1018   1.372       .  S
O1016      H1020   0.992       .  S
O1018      H1019   0.992       .  S
C1021      C1022   1.402       .  A
C1021      C1026   1.405       .  A
C1022      C1023   1.396       .  A
C1022      H1027   1.085       .  S
C1023      C1024   1.407       .  A
C1023      O1028   1.370   1_565  S
C1024      C1025   1.407       .  A
C1025      C1026   1.403       .  A
C1025      H1029   1.084       .  S
C1026      O1030   1.372       .  S
O1028      H1032   0.995       .  S
O1030      H1031   0.991       .  S
C1033      C1034   1.402       .  A
C1033      C1038   1.414       .  A
C1034      C1035   1.396   1_655  A
C1034      H1039   1.083       .  S
C1035      C1036   1.409       .  A
C1035      O1040   1.372       .  S
C1036      C1037   1.403       .  A
C1037      C1038   1.407   1_455  A
C1037      H1041   1.084       .  S
C1038      O1042   1.371       .  S
O1040      H1044   0.992       .  S
O1042      H1043   0.992       .  S
C1045      C1046   1.407       .  A
C1045      C1050   1.408       .  A
C1046      C1047   1.401       .  A
C1046      H1051   1.084       .  S
C1047      C1048   1.411       .  A
C1047      O1052   1.372       .  S
C1048      C1049   1.409       .  A
C1049      C1050   1.400       .  A
C1049      H1053   1.083       .  S
C1050      O1054   1.372       .  S
O1052      H1056   0.992       .  S
O1054      H1055   0.992       .  S
C1057      C1058   1.403       .  A
C1057      C1062   1.407       .  A
C1058      C1059   1.397       .  A
C1058      H1063   1.084       .  S
C1059      C1060   1.409       .  A
C1059      O1064   1.372       .  S
C1060      C1061   1.407       .  A
C1061      C1062   1.404       .  A
C1061      H1065   1.084       .  S
C1062      O1066   1.372       .  S
O1064      H1068   0.991       .  S
O1066      H1067   0.991       .  S
C1069      C1070   1.401       .  A
C1069      C1074   1.414       .  A
C1070      C1071   1.397       .  A
C1070      H1075   1.084       .  S
C1071      C1072   1.409       .  A
C1071      O1076   1.369       .  S
C1072      C1073   1.403       .  A
C1073      C1074   1.409       .  A
C1073      H1077   1.083       .  S
C1074      O1078   1.370       .  S
O1076      H1080   0.991       .  S
O1078      H1079   0.991       .  S
C1081      C1082   1.410       .  A
C1081      C1086   1.408       .  A
C1082      C1083   1.409   1_565  A
C1082      H1087   1.084       .  S
C1083      C1084   1.407       .  A
C1083      O1088   1.372       .  S
C1084      C1085   1.404       .  A
C1085      C1086   1.398   1_545  A
C1085      H1089   1.084       .  S
C1086      O1090   1.372       .  S
O1088      H1092   0.992       .  S
O1090      H1091   0.992       .  S
C1093      C1094   1.402       .  A
C1093      C1098   1.417   1_655  A
C1094      C1095   1.398       .  A
C1094      H1099   1.084       .  S
C1095      C1096   1.415       .  A
C1095      O1100   1.372       .  S
C1096      C1097   1.399   1_655  A
C1097      C1098   1.398       .  A
C1097      H1101   1.084       .  S
C1098      O1102   1.372       .  S
O1100      H1104   0.992       .  S
O1102      H1103   0.992       .  S
C1105      C1106   1.407       .  A
C1105      C1110   1.407       .  A
C1106      C1107   1.402       .  A
C1106      H1111   1.084       .  S
C1107      C1108   1.405       .  A
C1107      O1112   1.371       .  S
C1108      C1109   1.402       .  A
C1109      C1110   1.396       .  A
C1109      H1113   1.084       .  S
C1110      O1114   1.373   1_545  S
O1112      H1116   0.992       .  S
O1114      H1115   0.992       .  S
C1117      C1118   1.400       .  A
C1117      C1122   1.410       .  A
C1118      C1119   1.395       .  A
C1118      H1123   1.084   1_455  S
C1119      C1120   1.406       .  A
C1119      O1124   1.371       .  S
C1120      C1121   1.402       .  A
C1121      C1122   1.403       .  A
C1121      H1125   1.084       .  S
C1122      O1126   1.371       .  S
O1124      H1128   0.992   1_455  S
O1126      H1127   0.992       .  S
C1129      C1130   1.402       .  A
C1129      C1134   1.414       .  A
C1130      C1131   1.398   1_545  A
C1130      H1135   1.083       .  S
C1131      C1132   1.409       .  A
C1131      O1136   1.373       .  S
C1132      C1133   1.404       .  A
C1133      C1134   1.409   1_565  A
C1133      H1137   1.083       .  S
C1134      O1138   1.371       .  S
O1136      H1140   0.992       .  S
O1138      H1139   0.992       .  S
C1141      C1142   1.402       .  A
C1141      C1146   1.416       .  A
C1142      C1143   1.397       .  A
C1142      H1147   1.084       .  S
C1143      C1144   1.411       .  A
C1143      O1148   1.372   1_455  S
C1144      C1145   1.402       .  A
C1145      C1146   1.409       .  A
C1145      H1149   1.083       .  S
C1146      O1150   1.371       .  S
O1148      H1152   0.992       .  S
O1150      H1151   0.991       .  S
C1153      C1154   1.405       .  A
C1153      C1158   1.407       .  A
C1154      C1155   1.402       .  A
C1154      H1159   1.084       .  S
C1155      C1156   1.406       .  A
C1155      O1160   1.372       .  S
C1156      C1157   1.401       .  A
C1157      C1158   1.397       .  A
C1157      H1161   1.084       .  S
C1158      O1162   1.373       .  S
O1160      H1164   0.992       .  S
O1162      H1163   0.992       .  S
C1165      C1166   1.405       .  A
C1165      C1170   1.409       .  A
C1166      C1167   1.406       .  A
C1166      H1171   1.084       .  S
C1167      C1168   1.409       .  A
C1167      O1172   1.371       .  S
C1168      C1169   1.403       .  A
C1169      C1170   1.404       .  A
C1169      H1173   1.084       .  S
C1170      O1174   1.371       .  S
O1172      H1176   0.992       .  S
O1174      H1175   0.991       .  S
C1177      C1178   1.402       .  A
C1177      C1182   1.407       .  A
C1178      C1179   1.404       .  A
C1178      H1183   1.084       .  S
C1179      C1180   1.412       .  A
C1179      O1184   1.371       .  S
C1180      C1181   1.401       .  A
C1181      C1182   1.395       .  A
C1181      H1185   1.084       .  S
C1182      O1186   1.371       .  S
O1184      H1188   0.992       .  S
O1186      H1187   0.991       .  S
C1189      C1190   1.405       .  A
C1189      C1194   1.406       .  A
C1190      C1191   1.399       .  A
C1190      H1195   1.084       .  S
C1191      C1192   1.408       .  A
C1191      O1196   1.373   1_554  S
C1192      C1193   1.409       .  A
C1193      C1194   1.408       .  A
C1193      H1197   1.083       .  S
C1194      O1198   1.371       .  S
O1196      H1200   0.987   1_556  S
O1198      H1199   0.991       .  S
C1201      C1202   1.406       .  A
C1201      C1206   1.412       .  A
C1202      C1203   1.403       .  A
C1202      H1207   1.084       .  S
C1203      C1204   1.408       .  A
C1203      O1208   1.372       .  S
C1204      C1205   1.404       .  A
C1205      C1206   1.407       .  A
C1205      H1209   1.083       .  S
C1206      O1210   1.372   1_455  S
O1208      H1212   0.992       .  S
O1210      H1211   0.992   1_655  S
C1213      C1214   1.406       .  A
C1213      C1218   1.407       .  A
C1214      C1215   1.405       .  A
C1214      H1219   1.083       .  S
C1215      C1216   1.407       .  A
C1215      O1220   1.371       .  S
C1216      C1217   1.405       .  A
C1217      C1218   1.400       .  A
C1217      H1221   1.084       .  S
C1218      O1222   1.370       .  S
O1220      H1224   0.991       .  S
O1222      H1223   0.992       .  S
C1225      C1226   1.407       .  A
C1225      C1230   1.407       .  A
C1226      C1227   1.402       .  A
C1226      H1231   1.084       .  S
C1227      C1228   1.405       .  A
C1227      O1232   1.371       .  S
C1228      C1229   1.402       .  A
C1229      C1230   1.394       .  A
C1229      H1233   1.084       .  S
C1230      O1234   1.373       .  S
O1232      H1236   0.992       .  S
O1234      H1235   0.992       .  S
C1237      C1238   1.400       .  A
C1237      C1242   1.414       .  A
C1238      C1239   1.397       .  A
C1238      H1243   1.084       .  S
C1239      C1240   1.410       .  A
C1239      O1244   1.371       .  S
C1240      C1241   1.403       .  A
C1241      C1242   1.409       .  A
C1241      H1245   1.083       .  S
C1242      O1246   1.371       .  S
O1244      H1248   0.992       .  S
O1246      H1247   0.992       .  S
C1249      C1250   1.403       .  A
C1249      C1254   1.407       .  A
C1250      C1251   1.402       .  A
C1250      H1255   1.084       .  S
C1251      C1252   1.409       .  A
C1251      O1256   1.371       .  S
C1252      C1253   1.401       .  A
C1253      C1254   1.398       .  A
C1253      H1257   1.084       .  S
C1254      O1258   1.372       .  S
O1256      H1260   0.992       .  S
O1258      H1259   0.992       .  S
C1261      C1262   1.402       .  A
C1261      C1266   1.414       .  A
C1262      C1263   1.398       .  A
C1262      H1267   1.084       .  S
C1263      C1264   1.410       .  A
C1263      O1268   1.372       .  S
C1264      C1265   1.402       .  A
C1265      C1266   1.407       .  A
C1265      H1269   1.084       .  S
C1266      O1270   1.371       .  S
O1268      H1272   0.992       .  S
O1270      H1271   0.992       .  S
C1273      C1274   1.404       .  A
C1273      C1278   1.410       .  A
C1274      C1275   1.406       .  A
C1274      H1279   1.084       .  S
C1275      C1276   1.411       .  A
C1275      O1280   1.371       .  S
C1276      C1277   1.405       .  A
C1277      C1278   1.407       .  A
C1277      H1281   1.084       .  S
C1278      O1282   1.372       .  S
O1280      H1284   0.992       .  S
O1282      H1283   0.992       .  S
C1285      C1286   1.408       .  A
C1285      C1290   1.406       .  A
C1286      C1287   1.405       .  A
C1286      H1291   1.084       .  S
C1287      C1288   1.406       .  A
C1287      O1292   1.371       .  S
C1288      C1289   1.404       .  A
C1289      C1290   1.398       .  A
C1289      H1293   1.084   1_554  S
C1290      O1294   1.370   1_554  S
O1292      H1296   0.992       .  S
O1294      H1295   0.992       .  S
C1297      C1298   1.407       .  A
C1297      C1302   1.409       .  A
C1298      C1299   1.404       .  A
C1298      H1303   1.083       .  S
C1299      C1300   1.406       .  A
C1299      O1304   1.372       .  S
C1300      C1301   1.403       .  A
C1301      C1302   1.397       .  A
C1301      H1305   1.084       .  S
C1302      O1306   1.372       .  S
O1304      H1308   0.992       .  S
O1306      H1307   0.992       .  S
C1309      C1310   1.400       .  A
C1309      C1314   1.407       .  A
C1310      C1311   1.402       .  A
C1310      H1315   1.084       .  S
C1311      C1312   1.413       .  A
C1311      O1316   1.372       .  S
C1312      C1313   1.403       .  A
C1313      C1314   1.397       .  A
C1313      H1317   1.084       .  S
C1314      O1318   1.372       .  S
O1316      H1320   0.992       .  S
O1318      H1319   0.992       .  S
C1321      C1322   1.401       .  A
C1321      C1326   1.413       .  A
C1322      C1323   1.397       .  A
C1322      H1327   1.084       .  S
C1323      C1324   1.410       .  A
C1323      O1328   1.371       .  S
C1324      C1325   1.404       .  A
C1325      C1326   1.410       .  A
C1325      H1329   1.083       .  S
C1326      O1330   1.370       .  S
O1328      H1332   0.992   1_554  S
O1330      H1331   0.992       .  S
C1333      C1334   1.402       .  A
C1333      C1338   1.417       .  A
C1334      C1335   1.400       .  A
C1334      H1339   1.083       .  S
C1335      C1336   1.416       .  A
C1335      O1340   1.372       .  S
C1336      C1337   1.400       .  A
C1337      C1338   1.398       .  A
C1337      H1341   1.084       .  S
C1338      O1342   1.372       .  S
O1340      H1344   0.992       .  S
O1342      H1343   0.992       .  S
C1345      C1346   1.407       .  A
C1345      C1350   1.408       .  A
C1346      C1347   1.410       .  A
C1346      H1351   1.083       .  S
C1347      C1348   1.412       .  A
C1347      O1352   1.371       .  S
C1348      C1349   1.406       .  A
C1349      C1350   1.404       .  A
C1349      H1353   1.084       .  S
C1350      O1354   1.371       .  S
O1352      H1356   0.992       .  S
O1354      H1355   0.992       .  S
C1357      C1358   1.409       .  A
C1357      C1362   1.410       .  A
C1358      C1359   1.399       .  A
C1358      H1363   1.083       .  S
C1359      C1360   1.407       .  A
C1359      O1364   1.371       .  S
C1360      C1361   1.408       .  A
C1361      C1362   1.398       .  A
C1361      H1365   1.084       .  S
C1362      O1366   1.372       .  S
O1364      H1368   0.992       .  S
O1366      H1367   0.992       .  S
C1369      C1370   1.402       .  A
C1369      C1374   1.406       .  A
C1370      C1371   1.391       .  A
C1370      H1375   1.083       .  S
C1371      C1372   1.408       .  A
C1371      O1376   1.372       .  S
C1372      C1373   1.409       .  A
C1373      C1374   1.406       .  A
C1373      H1377   1.083       .  S
C1374      O1378   1.372       .  S
O1376      H1380   0.992       .  S
O1378      H1379   0.992       .  S
C1381      C1382   1.402       .  A
C1381      C1386   1.417       .  A
C1382      C1383   1.399       .  A
C1382      H1387   1.083       .  S
C1383      C1384   1.413       .  A
C1383      O1388   1.372       .  S
C1384      C1385   1.402       .  A
C1385      C1386   1.400       .  A
C1385      H1389   1.084       .  S
C1386      O1390   1.372       .  S
O1388      H1392   0.992       .  S
O1390      H1391   0.992       .  S
C1393      C1394   1.409       .  A
C1393      C1398   1.408       .  A
C1394      C1395   1.409       .  A
C1394      H1399   1.083       .  S
C1395      C1396   1.407       .  A
C1395      O1400   1.371       .  S
C1396      C1397   1.405       .  A
C1397      C1398   1.400       .  A
C1397      H1401   1.084       .  S
C1398      O1402   1.370       .  S
O1400      H1404   0.991       .  S
O1402      H1403   0.992       .  S
C1405      C1406   1.404       .  A
C1405      C1410   1.409       .  A
C1406      C1407   1.406       .  A
C1406      H1411   1.084       .  S
C1407      C1408   1.411       .  A
C1407      O1412   1.372       .  S
C1408      C1409   1.406       .  A
C1409      C1410   1.405       .  A
C1409      H1413   1.084       .  S
C1410      O1414   1.372       .  S
O1412      H1416   0.992       .  S
O1414      H1415   0.992       .  S
C1417      C1418   1.408       .  A
C1417      C1422   1.408       .  A
C1418      C1419   1.400       .  A
C1418      H1423   1.084       .  S
C1419      C1420   1.409       .  A
C1419      O1424   1.371       .  S
C1420      C1421   1.411       .  A
C1421      C1422   1.402       .  A
C1421      H1425   1.083       .  S
C1422      O1426   1.372       .  S
O1424      H1428   0.992       .  S
O1426      H1427   0.992       .  S
C1429      C1430   1.402       .  A
C1429      C1434   1.405       .  A
C1430      C1431   1.395       .  A
C1430      H1435   1.082       .  S
C1431      C1432   1.405       .  A
C1431      O1436   1.372       .  S
C1432      C1433   1.405       .  A
C1433      C1434   1.400       .  A
C1433      H1437   1.084       .  S
C1434      O1438   1.371       .  S
O1436      H1440   0.992       .  S
O1438      H1439   0.992       .  S
C1441      C1442   1.402       .  A
C1441      C1446   1.414       .  A
C1442      C1443   1.399       .  A
C1442      H1447   1.084       .  S
C1443      C1444   1.409       .  A
C1443      O1448   1.370       .  S
C1444      C1445   1.404       .  A
C1445      C1446   1.410       .  A
C1445      H1449   1.083       .  S
C1446      O1450   1.370       .  S
O1448      H1452   0.992       .  S
O1450      H1451   0.992       .  S
C1453      C1454   1.402       .  A
C1453      C1458   1.412       .  A
C1454      C1455   1.396       .  A
C1454      H1459   1.084       .  S
C1455      C1456   1.406       .  A
C1455      O1460   1.372       .  S
C1456      C1457   1.404       .  A
C1457      C1458   1.406       .  A
C1457      H1461   1.084       .  S
C1458      O1462   1.371       .  S
O1460      H1464   0.992       .  S
O1462      H1463   0.992       .  S
C1465      C1466   1.412       .  A
C1465      C1470   1.412       .  A
C1466      C1467   1.402       .  A
C1466      H1471   1.083       .  S
C1467      C1468   1.404       .  A
C1467      O1472   1.371       .  S
C1468      C1469   1.406       .  A
C1469      C1470   1.402       .  A
C1469      H1473   1.084       .  S
C1470      O1474   1.372       .  S
O1472      H1476   0.992       .  S
O1474      H1475   0.992       .  S
C1477      C1478   1.405       .  A
C1477      C1482   1.408       .  A
C1478      C1479   1.402       .  A
C1478      H1483   1.084       .  S
C1479      C1480   1.405       .  A
C1479      O1484   1.372       .  S
C1480      C1481   1.403       .  A
C1481      C1482   1.395       .  A
C1481      H1485   1.085       .  S
C1482      O1486   1.372       .  S
O1484      H1488   0.992       .  S
O1486      H1487   0.992       .  S
C1489      C1490   1.409       .  A
C1489      C1494   1.408       .  A
C1490      C1491   1.406       .  A
C1490      H1495   1.084       .  S
C1491      C1492   1.406       .  A
C1491      O1496   1.372       .  S
C1492      C1493   1.403       .  A
C1493      C1494   1.398       .  A
C1493      H1497   1.084       .  S
C1494      O1498   1.373       .  S
O1496      H1500   0.992       .  S
O1498      H1499   0.992       .  S
C1501      C1502   1.404       .  A
C1501      C1506   1.405       .  A
C1502      C1503   1.397       .  A
C1502      H1507   1.084       .  S
C1503      C1504   1.406       .  A
C1503      O1508   1.371       .  S
C1504      C1505   1.408       .  A
C1505      C1506   1.404       .  A
C1505      H1509   1.083       .  S
C1506      O1510   1.371       .  S
O1508      H1512   0.992       .  S
O1510      H1511   0.992       .  S
C1513      C1514   1.409       .  A
C1513      C1518   1.406       .  A
C1514      C1515   1.398       .  A
C1514      H1519   1.084       .  S
C1515      C1516   1.408       .  A
C1515      O1520   1.372       .  S
C1516      C1517   1.410       .  A
C1517      C1518   1.399       .  A
C1517      H1521   1.083       .  S
C1518      O1522   1.371       .  S
O1520      H1524   0.992       .  S
O1522      H1523   0.992       .  S
C1525      C1526   1.404       .  A
C1525      C1530   1.409       .  A
C1526      C1527   1.409       .  A
C1526      H1531   1.083       .  S
C1527      C1528   1.414       .  A
C1527      O1532   1.370       .  S
C1528      C1529   1.400       .  A
C1529      C1530   1.396       .  A
C1529      H1533   1.083       .  S
C1530      O1534   1.372       .  S
O1532      H1536   0.992       .  S
O1534      H1535   0.992       .  S
C1537      C1538   1.402       .  A
C1537      C1542   1.410       .  A
C1538      C1539   1.396       .  A
C1538      H1543   1.084       .  S
C1539      C1540   1.406       .  A
C1539      O1544   1.371       .  S
C1540      C1541   1.401       .  A
C1541      C1542   1.399       .  A
C1541      H1545   1.084       .  S
C1542      O1546   1.372       .  S
O1544      H1548   0.992       .  S
O1546      H1547   0.992       .  S
C1549      C1550   1.403       .  A
C1549      C1554   1.408       .  A
C1550      C1551   1.405       .  A
C1550      H1555   1.084       .  S
C1551      C1552   1.411       .  A
C1551      O1556   1.371       .  S
C1552      C1553   1.402       .  A
C1553      C1554   1.398       .  A
C1553      H1557   1.084       .  S
C1554      O1558   1.371       .  S
O1556      H1560   0.992       .  S
O1558      H1559   0.991       .  S
C1561      C1562   1.403       .  A
C1561      C1566   1.409       .  A
C1562      C1563   1.411       .  A
C1562      H1567   1.083       .  S
C1563      C1564   1.416       .  A
C1563      O1568   1.373       .  S
C1564      C1565   1.403       .  A
C1565      C1566   1.397       .  A
C1565      H1569   1.084       .  S
C1566      O1570   1.371       .  S
O1568      H1572   0.992       .  S
O1570      H1571   0.992       .  S
C1573      C1574   1.404       .  A
C1573      C1578   1.410       .  A
C1574      C1575   1.401       .  A
C1574      H1579   1.084       .  S
C1575      C1576   1.407       .  A
C1575      O1580   1.372       .  S
C1576      C1577   1.403       .  A
C1577      C1578   1.405       .  A
C1577      H1581   1.084       .  S
C1578      O1582   1.371       .  S
O1580      H1584   0.992       .  S
O1582      H1583   0.992       .  S
C1585      C1586   1.405       .  A
C1585      C1590   1.410       .  A
C1586      C1587   1.405       .  A
C1586      H1591   1.084       .  S
C1587      C1588   1.409       .  A
C1587      O1592   1.371       .  S
C1588      C1589   1.405       .  A
C1589      C1590   1.406       .  A
C1589      H1593   1.084       .  S
C1590      O1594   1.372       .  S
O1592      H1596   0.992       .  S
O1594      H1595   0.992       .  S
C1597      C1598   1.406       .  A
C1597      C1602   1.409       .  A
C1598      C1599   1.400       .  A
C1598      H1603   1.084       .  S
C1599      C1600   1.404       .  A
C1599      O1604   1.371       .  S
C1600      C1601   1.403       .  A
C1601      C1602   1.399       .  A
C1601      H1605   1.084       .  S
C1602      O1606   1.373       .  S
O1604      H1608   0.992       .  S
O1606      H1607   0.992       .  S
C1609      C1610   1.405   1_455  A
C1609      C1614   1.411       .  A
C1610      C1611   1.403       .  A
C1610      H1615   1.084       .  S
C1611      C1612   1.408       .  A
C1611      O1616   1.372       .  S
C1612      C1613   1.404       .  A
C1613      C1614   1.407   1_655  A
C1613      H1617   1.083       .  S
C1614      O1618   1.372       .  S
O1616      H1620   0.992       .  S
O1618      H1619   0.991       .  S
C1621      C1622   1.399       .  A
C1621      C1626   1.415       .  A
C1622      C1623   1.396       .  A
C1622      H1627   1.082       .  S
C1623      C1624   1.409       .  A
C1623      O1628   1.371       .  S
C1624      C1625   1.404       .  A
C1625      C1626   1.411       .  A
C1625      H1629   1.083       .  S
C1626      O1630   1.371       .  S
O1628      H1632   0.992       .  S
O1630      H1631   0.991       .  S
C1633      C1634   1.403       .  A
C1633      C1638   1.406       .  A
C1634      C1635   1.398       .  A
C1634      H1639   1.084       .  S
C1635      C1636   1.406       .  A
C1635      O1640   1.372       .  S
C1636      C1637   1.406       .  A
C1637      C1638   1.402       .  A
C1637      H1641   1.084       .  S
C1638      O1642   1.372       .  S
O1640      H1644   0.993       .  S
O1642      H1643   0.992       .  S
C1645      C1646   1.404       .  A
C1645      C1650   1.410       .  A
C1646      C1647   1.404       .  A
C1646      H1651   1.084       .  S
C1647      C1648   1.407       .  A
C1647      O1652   1.371       .  S
C1648      C1649   1.403       .  A
C1649      C1650   1.402       .  A
C1649      H1653   1.084       .  S
C1650      O1654   1.372       .  S
O1652      H1656   0.992       .  S
O1654      H1655   0.992       .  S
C1657      C1658   1.405       .  A
C1657      C1662   1.407       .  A
C1658      C1659   1.398       .  A
C1658      H1663   1.084       .  S
C1659      C1660   1.407       .  A
C1659      O1664   1.371       .  S
C1660      C1661   1.410       .  A
C1661      C1662   1.409       .  A
C1661      H1665   1.084       .  S
C1662      O1666   1.371       .  S
O1664      H1668   0.992       .  S
O1666      H1667   0.991       .  S
C1669      C1670   1.403       .  A
C1669      C1674   1.405       .  A
C1670      C1671   1.399       .  A
C1670      H1675   1.084       .  S
C1671      C1672   1.409       .  A
C1671      O1676   1.373       .  S
C1672      C1673   1.407       .  A
C1673      C1674   1.403       .  A
C1673      H1677   1.084       .  S
C1674      O1678   1.371       .  S
O1676      H1680   0.992       .  S
O1678      H1679   0.992       .  S
C1681      C1682   1.404       .  A
C1681      C1686   1.412       .  A
C1682      C1683   1.401   1_545  A
C1682      H1687   1.084       .  S
C1683      C1684   1.407       .  A
C1683      O1688   1.371       .  S
C1684      C1685   1.405       .  A
C1685      C1686   1.408   1_565  A
C1685      H1689   1.083       .  S
C1686      O1690   1.372       .  S
O1688      H1692   0.992       .  S
O1690      H1691   0.992       .  S
C1693      C1694   1.404       .  A
C1693      C1698   1.406       .  A
C1694      C1695   1.398       .  A
C1694      H1699   1.084       .  S
C1695      C1696   1.406       .  A
C1695      O1700   1.373       .  S
C1696      C1697   1.408       .  A
C1697      C1698   1.407       .  A
C1697      H1701   1.083       .  S
C1698      O1702   1.372       .  S
O1700      H1704   0.992       .  S
O1702      H1703   0.992       .  S
C1705      C1706   1.401       .  A
C1705      C1710   1.408       .  A
C1706      C1707   1.397       .  A
C1706      H1711   1.084       .  S
C1707      C1708   1.407       .  A
C1707      O1712   1.371       .  S
C1708      C1709   1.401       .  A
C1709      C1710   1.400       .  A
C1709      H1713   1.084       .  S
C1710      O1714   1.371       .  S
O1712      H1716   0.992       .  S
O1714      H1715   0.992       .  S
C1717      C1718   1.408       .  A
C1717      C1722   1.405       .  A
C1718      C1719   1.407       .  A
C1718      H1723   1.084       .  S
C1719      C1720   1.407       .  A
C1719      O1724   1.372       .  S
C1720      C1721   1.405       .  A
C1721      C1722   1.397       .  A
C1721      H1725   1.084       .  S
C1722      O1726   1.371       .  S
O1724      H1728   0.992       .  S
O1726      H1727   0.992       .  S
C1729      C1730   1.410       .  A
C1729      C1734   1.414       .  A
C1730      C1731   1.411       .  A
C1730      H1735   1.083       .  S
C1731      C1732   1.407       .  A
C1731      O1736   1.371       .  S
C1732      C1733   1.399       .  A
C1733      C1734   1.398       .  A
C1733      H1737   1.085       .  S
C1734      O1738   1.373       .  S
O1736      H1740   0.992       .  S
O1738      H1739   0.992       .  S
C1741      C1742   1.401       .  A
C1741      C1746   1.412       .  A
C1742      C1743   1.395       .  A
C1742      H1747   1.084       .  S
C1743      C1744   1.407       .  A
C1743      O1748   1.371       .  S
C1744      C1745   1.402       .  A
C1745      C1746   1.405       .  A
C1745      H1749   1.084       .  S
C1746      O1750   1.372       .  S
O1748      H1752   0.992       .  S
O1750      H1751   0.993       .  S
C1753      C1754   1.403       .  A
C1753      C1758   1.412       .  A
C1754      C1755   1.396       .  A
C1754      H1759   1.084       .  S
C1755      C1756   1.407       .  A
C1755      O1760   1.372       .  S
C1756      C1757   1.401       .  A
C1757      C1758   1.402       .  A
C1757      H1761   1.084       .  S
C1758      O1762   1.372       .  S
O1760      H1764   0.992       .  S
O1762      H1763   0.992       .  S
C1765      C1766   1.401       .  A
C1765      C1770   1.414       .  A
C1766      C1767   1.394       .  A
C1766      H1771   1.081       .  S
C1767      C1768   1.408       .  A
C1767      O1772   1.372       .  S
C1768      C1769   1.404       .  A
C1769      C1770   1.410       .  A
C1769      H1773   1.083       .  S
C1770      O1774   1.370       .  S
O1772      H1776   0.992       .  S
O1774      H1775   0.991       .  S
C1777      C1778   1.401       .  A
C1777      C1782   1.414       .  A
C1778      C1779   1.394       .  A
C1778      H1783   1.081       .  S
C1779      C1780   1.407       .  A
C1779      O1784   1.371       .  S
C1780      C1781   1.401       .  A
C1781      C1782   1.406       .  A
C1781      H1785   1.083       .  S
C1782      O1786   1.370       .  S
O1784      H1788   0.992       .  S
O1786      H1787   0.992       .  S
C1789      C1790   1.405       .  A
C1789      C1794   1.409       .  A
C1790      C1791   1.404       .  A
C1790      H1795   1.084       .  S
C1791      C1792   1.408       .  A
C1791      O1796   1.371       .  S
C1792      C1793   1.403       .  A
C1793      C1794   1.403       .  A
C1793      H1797   1.084       .  S
C1794      O1798   1.372       .  S
O1796      H1800   0.992       .  S
O1798      H1799   0.992       .  S
C1801      C1802   1.409       .  A
C1801      C1806   1.409       .  A
C1802      C1803   1.398       .  A
C1802      H1807   1.083       .  S
C1803      C1804   1.407       .  A
C1803      O1808   1.372       .  S
C1804      C1805   1.408       .  A
C1805      C1806   1.401       .  A
C1805      H1809   1.084       .  S
C1806      O1810   1.372       .  S
O1808      H1812   0.992       .  S
O1810      H1811   0.992       .  S
C1813      C1814   1.405       .  A
C1813      C1818   1.408   1_455  A
C1814      C1815   1.406   1_455  A
C1814      H1819   1.084       .  S
C1815      C1816   1.410       .  A
C1815      O1820   1.372       .  S
C1816      C1817   1.404       .  A
C1817      C1818   1.404       .  A
C1817      H1821   1.084       .  S
C1818      O1822   1.371       .  S
O1820      H1824   0.992       .  S
O1822      H1823   0.992       .  S
C1825      C1826   1.404       .  A
C1825      C1830   1.415       .  A
C1826      C1827   1.402       .  A
C1826      H1831   1.084       .  S
C1827      C1828   1.415       .  A
C1827      O1832   1.372       .  S
C1828      C1829   1.401       .  A
C1829      C1830   1.400       .  A
C1829      H1833   1.084       .  S
C1830      O1834   1.372       .  S
O1832      H1836   0.992       .  S
O1834      H1835   0.992       .  S
C1837      C1838   1.403       .  A
C1837      C1842   1.407       .  A
C1838      C1839   1.405       .  A
C1838      H1843   1.084       .  S
C1839      C1840   1.410       .  A
C1839      O1844   1.371       .  S
C1840      C1841   1.405       .  A
C1841      C1842   1.401       .  A
C1841      H1845   1.084       .  S
C1842      O1846   1.372       .  S
O1844      H1848   0.992       .  S
O1846      H1847   0.992       .  S
C1849      C1850   1.412       .  A
C1849      C1854   1.410       .  A
C1850      C1851   1.401       .  A
C1850      H1855   1.083       .  S
C1851      C1852   1.405       .  A
C1851      O1856   1.372       .  S
C1852      C1853   1.408       .  A
C1853      C1854   1.401       .  A
C1853      H1857   1.084       .  S
C1854      O1858   1.372       .  S
O1856      H1860   0.992       .  S
O1858      H1859   0.992       .  S
C1861      C1862   1.402       .  A
C1861      C1866   1.408       .  A
C1862      C1863   1.406       .  A
C1862      H1867   1.084       .  S
C1863      C1864   1.413       .  A
C1863      O1868   1.371       .  S
C1864      C1865   1.402       .  A
C1865      C1866   1.398       .  A
C1865      H1869   1.084       .  S
C1866      O1870   1.371       .  S
O1868      H1872   0.991       .  S
O1870      H1871   0.992       .  S
C1873      C1874   1.403       .  A
C1873      C1878   1.405       .  A
C1874      C1875   1.397       .  A
C1874      H1879   1.085       .  S
C1875      C1876   1.409       .  A
C1875      O1880   1.373       .  S
C1876      C1877   1.406       .  A
C1877      C1878   1.403       .  A
C1877      H1881   1.084       .  S
C1878      O1882   1.372       .  S
O1880      H1884   0.992       .  S
O1882      H1883   0.992       .  S
C1885      C1886   1.404       .  A
C1885      C1890   1.410       .  A
C1886      C1887   1.407       .  A
C1886      H1891   1.084       .  S
C1887      C1888   1.410       .  A
C1887      O1892   1.372       .  S
C1888      C1889   1.405       .  A
C1889      C1890   1.406       .  A
C1889      H1893   1.084       .  S
C1890      O1894   1.371       .  S
O1892      H1896   0.992       .  S
O1894      H1895   0.992       .  S
C1897      C1898   1.406       .  A
C1897      C1902   1.410       .  A
C1898      C1899   1.408       .  A
C1898      H1903   1.084       .  S
C1899      C1900   1.409       .  A
C1899      O1904   1.372       .  S
C1900      C1901   1.403       .  A
C1901      C1902   1.402       .  A
C1901      H1905   1.084       .  S
C1902      O1906   1.371       .  S
O1904      H1908   0.992       .  S
O1906      H1907   0.992       .  S
C1909      C1910   1.407       .  A
C1909      C1914   1.404       .  A
C1910      C1911   1.400       .  A
C1910      H1915   1.084       .  S
C1911      C1912   1.410       .  A
C1911      O1916   1.371       .  S
C1912      C1913   1.413       .  A
C1913      C1914   1.400       .  A
C1913      H1917   1.083       .  S
C1914      O1918   1.372       .  S
O1916      H1920   0.992       .  S
O1918      H1919   0.992       .  S
C1921      C1922   1.401       .  A
C1921      C1926   1.410       .  A
C1922      C1923   1.397       .  A
C1922      H1927   1.084       .  S
C1923      C1924   1.407       .  A
C1923      O1928   1.370       .  S
C1924      C1925   1.403       .  A
C1925      C1926   1.404       .  A
C1925      H1929   1.084       .  S
C1926      O1930   1.371       .  S
O1928      H1932   0.992       .  S
O1930      H1931   0.991       .  S
C1933      C1934   1.408       .  A
C1933      C1938   1.408       .  A
C1934      C1935   1.405       .  A
C1934      H1939   1.083       .  S
C1935      C1936   1.405       .  A
C1935      O1940   1.371       .  S
C1936      C1937   1.404       .  A
C1937      C1938   1.394       .  A
C1937      H1941   1.083       .  S
C1938      O1942   1.372       .  S
O1940      H1944   0.991       .  S
O1942      H1943   0.992       .  S
C1945      C1946   1.404       .  A
C1945      C1950   1.406       .  A
C1946      C1947   1.396       .  A
C1946      H1951   1.084       .  S
C1947      C1948   1.409       .  A
C1947      O1952   1.372       .  S
C1948      C1949   1.410       .  A
C1949      C1950   1.408       .  A
C1949      H1953   1.083       .  S
C1950      O1954   1.371       .  S
O1952      H1956   0.992       .  S
O1954      H1955   0.992       .  S
C1957      C1958   1.411       .  A
C1957      C1962   1.410       .  A
C1958      C1959   1.399       .  A
C1958      H1963   1.083       .  S
C1959      C1960   1.405       .  A
C1959      O1964   1.371       .  S
C1960      C1961   1.407       .  A
C1961      C1962   1.399       .  A
C1961      H1965   1.084       .  S
C1962      O1966   1.372       .  S
O1964      H1968   0.992       .  S
O1966      H1967   0.992       .  S
C1969      C1970   1.401       .  A
C1969      C1974   1.411       .  A
C1970      C1971   1.394       .  A
C1970      H1975   1.084       .  S
C1971      C1972   1.406       .  A
C1971      O1976   1.371       .  S
C1972      C1973   1.402       .  A
C1973      C1974   1.403       .  A
C1973      H1977   1.084       .  S
C1974      O1978   1.371       .  S
O1976      H1980   0.991       .  S
O1978      H1979   0.992       .  S
C1981      C1982   1.408       .  A
C1981      C1986   1.408       .  A
C1982      C1983   1.405       .  A
C1982      H1987   1.084       .  S
C1983      C1984   1.405       .  A
C1983      O1988   1.371       .  S
C1984      C1985   1.403       .  A
C1985      C1986   1.397       .  A
C1985      H1989   1.084       .  S
C1986      O1990   1.370       .  S
O1988      H1992   0.991       .  S
O1990      H1991   0.992       .  S
C1993      C1994   1.402       .  A
C1993      C1998   1.413       .  A
C1994      C1995   1.397       .  A
C1994      H1999   1.084       .  S
C1995      C1996   1.409       .  A
C1995      O2000   1.370       .  S
C1996      C1997   1.402       .  A
C1997      C1998   1.409       .  A
C1997      H2001   1.083       .  S
C1998      O2002   1.370       .  S
O2000      H2004   0.992       .  S
O2002      H2003   0.992       .  S
C2005      C2006   1.404       .  A
C2005      C2010   1.409       .  A
C2006      C2007   1.404       .  A
C2006      H2011   1.084       .  S
C2007      C2008   1.408       .  A
C2007      O2012   1.371       .  S
C2008      C2009   1.406       .  A
C2009      C2010   1.406       .  A
C2009      H2013   1.084       .  S
C2010      O2014   1.372       .  S
O2012      H2016   0.992       .  S
O2014      H2015   0.992       .  S
C2017      C2018   1.402       .  A
C2017      C2022   1.415       .  A
C2018      C2019   1.401       .  A
C2018      H2023   1.084       .  S
C2019      C2020   1.416       .  A
C2019      O2024   1.372       .  S
C2020      C2021   1.403       .  A
C2021      C2022   1.401       .  A
C2021      H2025   1.083       .  S
C2022      O2026   1.372       .  S
O2024      H2028   0.992       .  S
O2026      H2027   0.992       .  S
C2029      C2030   1.402       .  A
C2029      C2034   1.415       .  A
C2030      C2031   1.398       .  A
C2030      H2035   1.084       .  S
C2031      C2032   1.411       .  A
C2031      O2036   1.373       .  S
C2032      C2033   1.403       .  A
C2033      C2034   1.409       .  A
C2033      H2037   1.083       .  S
C2034      O2038   1.371       .  S
O2036      H2040   0.992       .  S
O2038      H2039   0.992       .  S
C2041      C2042   1.407       .  A
C2041      C2046   1.409       .  A
C2042      C2043   1.405       .  A
C2042      H2047   1.083       .  S
C2043      C2044   1.406       .  A
C2043      O2048   1.372       .  S
C2044      C2045   1.403       .  A
C2045      C2046   1.395       .  A
C2045      H2049   1.084       .  S
C2046      O2050   1.372       .  S
O2048      H2052   0.992       .  S
O2050      H2051   0.992       .  S
C2053      C2054   1.402       .  A
C2053      C2058   1.407       .  A
C2054      C2055   1.402       .  A
C2054      H2059   1.084       .  S
C2055      C2056   1.411       .  A
C2055      O2060   1.371       .  S
C2056      C2057   1.402       .  A
C2057      C2058   1.397       .  A
C2057      H2061   1.084       .  S
C2058      O2062   1.372       .  S
O2060      H2064   0.992       .  S
O2062      H2063   0.992       .  S
C2065      C2066   1.410       .  A
C2065      C2070   1.406       .  A
C2066      C2067   1.408       .  A
C2066      H2071   1.083       .  S
C2067      C2068   1.406       .  A
C2067      O2072   1.371       .  S
C2068      C2069   1.405       .  A
C2069      C2070   1.399       .  A
C2069      H2073   1.084       .  S
C2070      O2074   1.372       .  S
O2072      H2076   0.991       .  S
O2074      H2075   0.993       .  S
C2077      C2078   1.409       .  A
C2077      C2082   1.413       .  A
C2078      C2079   1.409   1_545  A
C2078      H2083   1.083       .  S
C2079      C2080   1.407       .  A
C2079      O2084   1.371       .  S
C2080      C2081   1.401       .  A
C2081      C2082   1.402   1_565  A
C2081      H2085   1.084       .  S
C2082      O2086   1.373       .  S
O2084      H2088   0.992       .  S
O2086      H2087   0.992       .  S
