geometry optimzed in LAMMPS
_audit_creation_date              2020-12-01 
_audit_creation_method            'lammps2cif' 
_symmetry_space_group_name_H-M    'P1' 
_symmetry_Int_Tables_number       1 
_symmetry_cell_setting            triclinic 
loop_ 
_symmetry_equiv_pos_as_xyz 
  x,y,z 
_cell_length_a                    23.92232899 
_cell_length_b                    23.85286088114914 
_cell_length_c                    49.93825670651145 
_cell_angle_alpha                 90.40785546290763 
_cell_angle_beta                  90.00878648948456 
_cell_angle_gamma                 89.76944669102441 
loop_ 
_atom_site_label 
_atom_site_type_symbol 
_atom_site_fract_x 
_atom_site_fract_y 
_atom_site_fract_z 
_atom_site_charge 
O1          O  0.27857787  0.91555781  0.52591581    -0.81100
O2          O  0.19578765  0.94835876  0.63972116    -0.65800
O3          O  0.20991165  0.88832094  0.56883839    -1.12400
C4          C  0.07931212  0.01102555  0.53996384     1.05700
O5          O  0.11438264  0.99373454  0.63465872    -0.79000
O6          O  0.07855908  0.91354052  0.59728074    -0.66600
Ni7        Ni  0.27771624  0.86234643  0.55459900     1.34900
C8          C  0.07851802  0.88420329  0.57574294     0.84500
O9          O  0.24112282  0.85145555  0.61902412    -0.79600
O10         O  0.27891118  0.80849255  0.58254102    -0.89900
C11         C  0.15615596  0.97922971  0.64879222     0.84100
O12         O  0.32773793  0.90853996  0.57407573    -0.68100
O13         O  0.05919688  0.99876412  0.56269477    -0.87300
C14         C  0.32131216  0.94635353  0.59172589     0.84900
C15         C  0.26455076  0.80936068  0.60722381     1.06500
H16         H  0.18785887  0.01270046  0.58787141     0.38300
O17         O  0.16627489  0.97860767  0.58665881    -1.10000
O18         O  0.10496997  0.89974707  0.55455112    -0.66700
Ni19       Ni  0.17229084  0.94724535  0.55154201     1.26300
O20         O  0.27423947  0.95705927  0.60258372    -0.66900
O21         O  0.13112237  0.00621252  0.53530457    -0.79200
C22         C  0.23959263  0.92210037  0.50891472     0.84300
O23         O  0.18855411  0.91843795  0.51627295    -0.66400
Ni24       Ni  0.09149793  0.99257192  0.59791316     1.27400
Ni25       Ni  0.20444769  0.91695321  0.60406528     1.26100
H26         H  0.18671662  0.85532199  0.56835716     0.38800
O27         O  0.73125643  0.66413539  0.52544239    -0.81100
O28         O  0.81425142  0.63113040  0.64004536    -0.65800
O29         O  0.80037539  0.68938189  0.56917934    -1.12400
C30         C  0.92518285  0.55950108  0.54063478     1.05700
O31         O  0.89299580  0.58137340  0.63519469    -0.79000
O32         O  0.93299441  0.65825647  0.59734524    -0.66600
Ni33       Ni  0.73210658  0.71560659  0.55532934     1.34900
C34         C  0.93432260  0.68712085  0.57581108     0.84500
O35         O  0.77269168  0.72824379  0.61984567    -0.79600
O36         O  0.73038239  0.76846642  0.58415004    -0.89900
C37         C  0.85215962  0.59875999  0.64923759     0.84100
O38         O  0.68230396  0.66753896  0.57373953    -0.68100
O39         O  0.94558102  0.57113420  0.56337375    -0.87300
C40         C  0.68838168  0.63176259  0.59213720     0.84900
C41         C  0.74751954  0.76918866  0.60840448     1.06500
H42         H  0.81755182  0.56493493  0.58808734     0.38300
O43         O  0.84079080  0.59787600  0.58693266    -1.10000
O44         O  0.90530086  0.67327345  0.55499898    -0.66700
Ni45       Ni  0.83585581  0.62884720  0.55177884     1.26300
O46         O  0.73486162  0.62361491  0.60393139    -0.66900
O47         O  0.87408135  0.56776255  0.53547565    -0.79200
C48         C  0.77053180  0.65688769  0.50858236     0.84300
O49         O  0.82145463  0.65800932  0.51637021    -0.66400
Ni50       Ni  0.91473312  0.58022527  0.59834755     1.27400
Ni51       Ni  0.80597151  0.66141437  0.60450237     1.26100
H52         H  0.82440377  0.72176756  0.56844745     0.38800
O53         O  0.30002198  0.40021416  0.61206293    -0.81100
O54         O  0.37768359  0.47621255  0.73009075    -0.65800
O55         O  0.31711998  0.45263066  0.65997727    -1.12400
C56         C  0.48485174  0.55125236  0.63833096     1.05700
O57         O  0.37859028  0.56664356  0.72061790    -0.79000
O58         O  0.38311383  0.61478011  0.67191372    -0.66600
Ni59       Ni  0.30170486  0.37783515  0.64879244     1.34900
C60         C  0.34649211  0.60678942  0.65397971     0.84500
O61         O  0.29026088  0.41839760  0.71159832    -0.79600
O62         O  0.29592233  0.34598270  0.68391589    -0.89900
C63         C  0.37318474  0.52744010  0.73761164     0.84100
O64         O  0.38013762  0.36312540  0.64898010    -0.68100
O65         O  0.48510610  0.56736488  0.66285431    -0.87300
C66         C  0.40995906  0.36294282  0.67026465     0.84900
C67         C  0.28431521  0.36661125  0.70672103     1.06500
H68         H  0.44022704  0.47379753  0.67805938     0.38300
O69         O  0.40697628  0.49681698  0.67742159    -1.10000
O70         O  0.33801643  0.55918227  0.64313606    -0.66700
Ni71       Ni  0.37881299  0.48963864  0.64226244     1.26300
O72         O  0.39593042  0.39145670  0.69132760    -0.66900
O73         O  0.44379359  0.52589868  0.62692966    -0.79200
C74         C  0.31612204  0.44108525  0.59787988     0.84300
O75         O  0.34828839  0.47959611  0.60673081    -0.66400
Ni76       Ni  0.43123255  0.56600794  0.69124353     1.27400
Ni77       Ni  0.34860704  0.45929267  0.69493751     1.26100
H78         H  0.28335773  0.47488108  0.65892376     0.38800
O79         O  0.71125590  0.17407646  0.61010960    -0.81100
O80         O  0.63513207  0.10493646  0.72916090    -0.65800
O81         O  0.69488807  0.12395736  0.65845610    -1.12400
C82         C  0.52451333  0.02885814  0.63740860     1.05700
O83         O  0.62948591  0.01503770  0.71914475    -0.79000
O84         O  0.62373409  0.96492853  0.67136622    -0.66600
Ni85       Ni  0.71230440  0.19766855  0.64692055     1.34900
C86         C  0.66184201  0.97116111  0.65408170     0.84500
O87         O  0.72426497  0.15850535  0.70990580    -0.79600
O88         O  0.72089395  0.23019322  0.68209264    -0.89900
C89         C  0.63594937  0.05360542  0.73650148     0.84100
O90         O  0.63434866  0.21505364  0.64778416    -0.68100
O91         O  0.52331254  0.01485608  0.66204256    -0.87300
C92         C  0.60534161  0.21642659  0.66929585     0.84900
C93         C  0.73157719  0.20995469  0.70497709     1.06500
H94         H  0.57146132  0.10819286  0.67684595     0.38300
O95         O  0.60374173  0.08378979  0.67626977    -1.10000
O96         O  0.67118163  0.01761592  0.64261481    -0.66700
Ni97       Ni  0.63201468  0.08789536  0.64102372     1.26300
O98         O  0.61948228  0.18903499  0.69044697    -0.66900
O99         O  0.56626114  0.05236946  0.62590429    -0.79200
C100        C  0.69431950  0.13276315  0.59609231     0.84300
O101        O  0.66251547  0.09473615  0.60538813    -0.66400
Ni102      Ni  0.57691957  0.01616526  0.69022225     1.27400
Ni103      Ni  0.66399109  0.11948965  0.69365362     1.26100
H104        H  0.72804365  0.10078567  0.65732604     0.38800
O105        O  0.61501155  0.00063222  0.86113575    -0.81100
O106        O  0.68528345  0.92294854  0.97969958    -0.65800
O107        O  0.66609295  0.98343060  0.90947396    -1.12400
C108        C  0.76056696  0.81182965  0.88833222     1.05700
O109        O  0.77539613  0.91879166  0.97031859    -0.79000
O110        O  0.82492052  0.91302001  0.92225144    -0.66600
Ni111      Ni  0.59263717  0.00217927  0.89802808     1.34900
C112        C  0.81779202  0.94958298  0.90431456     0.84500
O113        O  0.63298225  0.01377491  0.96103313    -0.79600
O114        O  0.56150523  0.01169575  0.93308440    -0.89900
C115        C  0.73621446  0.92372974  0.98735662     0.84100
O116        O  0.57398010  0.92437278  0.89915681    -0.68100
O117        O  0.77642839  0.81206580  0.91278300    -0.87300
C118        C  0.57261186  0.89518897  0.92058191     0.84900
C119        C  0.58183680  0.02226498  0.95599705     1.06500
H120        H  0.68223896  0.85941835  0.92799523     0.38300
O121        O  0.70629602  0.89177433  0.92722102    -1.10000
O122        O  0.77098934  0.95801424  0.89305153    -0.66700
Ni123      Ni  0.70096383  0.91956931  0.89199565     1.26300
O124        O  0.60135046  0.90863606  0.94150573    -0.66900
O125        O  0.73556996  0.85291143  0.87682812    -0.79200
C126        C  0.65581354  0.98258254  0.84721089     0.84300
O127        O  0.69318806  0.94965362  0.85642147    -0.66400
Ni128      Ni  0.77480230  0.86597417  0.94110036     1.27400
Ni129      Ni  0.67096473  0.95253847  0.94458002     1.26100
H130        H  0.68951475  0.01624983  0.90838576     0.38800
O131        O  0.38823483  0.59571218  0.86121957    -0.81100
O132        O  0.31252284  0.66503355  0.98072044    -0.65800
O133        O  0.33602635  0.60557315  0.91000464    -1.12400
C134        C  0.23332173  0.77193252  0.88907560     1.05700
O135        O  0.22239423  0.66840705  0.97115941    -0.79000
O136        O  0.17266993  0.67560407  0.92277123    -0.66600
Ni137      Ni  0.41074264  0.59388681  0.89810627     1.34900
C138        C  0.17874637  0.63587607  0.90606342     0.84500
O139        O  0.37234035  0.57877155  0.96139370    -0.79600
O140        O  0.44315203  0.58532906  0.93313290    -0.89900
C141        C  0.26143169  0.66144226  0.98816829     0.84100
O142        O  0.42339063  0.67267349  0.90001138    -0.68100
O143        O  0.22218915  0.77513610  0.91410342    -0.87300
C144        C  0.42433595  0.70095312  0.92184410     0.84900
C145        C  0.42386453  0.57298853  0.95599827     1.06500
H146        H  0.31414073  0.72798960  0.92768527     0.38300
O147        O  0.29088867  0.69502152  0.92775641    -1.10000
O148        O  0.22598846  0.62335123  0.89569351    -0.66700
Ni149      Ni  0.29479136  0.66515269  0.89263302     1.26300
O150        O  0.39659987  0.68551931  0.94267354    -0.66900
O151        O  0.25506406  0.72871802  0.87748176    -0.79200
C152        C  0.34455815  0.60586453  0.84749601     0.84300
O153        O  0.30239844  0.63234365  0.85712868    -0.66400
Ni154      Ni  0.22339452  0.72146449  0.94222615     1.27400
Ni155      Ni  0.32976868  0.63692045  0.94524189     1.26100
H156        H  0.31571557  0.57068220  0.90901939     0.38800
O157        O  0.12063685  0.01799516  0.77512691    -0.81100
O158        O  0.15643865  0.10063821  0.88967063    -0.65800
O159        O  0.09646268  0.08841189  0.81883127    -1.12400
C160        C  0.22797313  0.21001950  0.78977199     1.05700
O161        O  0.20424361  0.18028958  0.88486223    -0.79000
O162        O  0.13032210  0.22125153  0.84655410    -0.66600
Ni163      Ni  0.06873670  0.02073110  0.80466282     1.34900
C164        C  0.10134318  0.22278068  0.82509530     0.84500
O165        O  0.05911187  0.05936182  0.86929254    -0.79600
O166        O  0.01578654  0.02095581  0.83317726    -0.89900
C167        C  0.18756675  0.13953026  0.89903492     0.84100
O168        O  0.11437711  0.96891100  0.82356929    -0.68100
O169        O  0.21784799  0.23142362  0.81261189    -0.87300
C170        C  0.15128329  0.97447320  0.84158081     0.84900
C171        C  0.01725198  0.03562937  0.85785714     1.06500
H172        H  0.22123426  0.10347822  0.83758098     0.38300
O173        O  0.18853932  0.12727151  0.83650815    -1.10000
O174        O  0.11417375  0.19297541  0.80433796    -0.66700
Ni175      Ni  0.15708831  0.12239143  0.80138945     1.26300
O176        O  0.16227942  0.02141397  0.85258979    -0.66900
O177        O  0.21819670  0.15892247  0.78483543    -0.79200
C178        C  0.12855089  0.05718885  0.75839612     0.84300
O179        O  0.12714550  0.10824465  0.76620782    -0.66400
Ni180      Ni  0.20738134  0.20118261  0.84786911     1.27400
Ni181      Ni  0.12525842  0.09301779  0.85405375     1.26100
H182        H  0.06464506  0.11342822  0.81830547     0.38800
O183        O  0.87201450  0.56372647  0.77678936    -0.81100
O184        O  0.83957385  0.48158677  0.89038428    -0.65800
O185        O  0.89903767  0.49424932  0.81965761    -1.12400
C186        C  0.77322503  0.36619945  0.79079420     1.05700
O187        O  0.80061001  0.39696341  0.88564406    -0.79000
O188        O  0.87513379  0.36202197  0.84642178    -0.66600
Ni189      Ni  0.92523652  0.56214742  0.80573573     1.34900
C190        C  0.90247668  0.36255823  0.82449819     0.84500
O191        O  0.93580736  0.52690325  0.87010071    -0.79600
O192        O  0.97953904  0.56275951  0.83376786    -0.89900
C193        C  0.81193550  0.44022175  0.89958651     0.84100
O194        O  0.87930868  0.61284884  0.82540866    -0.68100
O195        O  0.78615307  0.34519737  0.81326269    -0.87300
C196        C  0.84119058  0.60636777  0.84270057     0.84900
C197        C  0.97804605  0.54960701  0.85854365     1.06500
H198        H  0.77512716  0.47250361  0.83914698     0.38300
O199        O  0.80937728  0.45110071  0.83760089    -1.10000
O200        O  0.88549997  0.38961827  0.80385921    -0.66700
Ni201      Ni  0.83917402  0.45781007  0.80228106     1.26300
O202        O  0.83022707  0.55913351  0.85312346    -0.66900
O203        O  0.77931043  0.41795861  0.78613918    -0.79200
C204        C  0.86627570  0.52461057  0.75956098     0.84300
O205        O  0.86720535  0.47351924  0.76699026    -0.66400
Ni206      Ni  0.79677013  0.37593720  0.84865187     1.27400
Ni207      Ni  0.87086914  0.48948896  0.85491267     1.26100
H208        H  0.93163109  0.47030106  0.81908088     0.38800
O209        O  0.77396380  0.41214687  0.02621459    -0.81100
O210        O  0.69006809  0.44224640  0.13985400    -0.65800
O211        O  0.70372748  0.38476198  0.06856661    -1.12400
C212        C  0.57829050  0.51531259  0.04055105     1.05700
O213        O  0.61058773  0.49087238  0.13488911    -0.79000
O214        O  0.57176764  0.41538742  0.09638250    -0.66600
Ni215      Ni  0.77158683  0.35786706  0.05455952     1.34900
C216        C  0.57033466  0.38692983  0.07460620     0.84500
O217        O  0.73242674  0.34436989  0.11852997    -0.79600
O218        O  0.77106631  0.30246678  0.08200048    -0.89900
C219        C  0.65157689  0.47439362  0.14899449     0.84100
O220        O  0.82250950  0.40255091  0.07462186    -0.68100
O221        O  0.55770918  0.50287199  0.06308415    -0.87300
C222        C  0.81647955  0.43968107  0.09266955     0.84900
C223        C  0.75548188  0.30224216  0.10651136     1.06500
H224        H  0.68604977  0.50897787  0.08852678     0.38300
O225        O  0.66301522  0.47592749  0.08698383    -1.10000
O226        O  0.59916588  0.40100027  0.05391292    -0.66700
Ni227      Ni  0.66835617  0.44566402  0.05159385     1.26300
O228        O  0.76943508  0.45017203  0.10357007    -0.66900
O229        O  0.62957439  0.50679727  0.03548525    -0.79200
C230        C  0.73523161  0.41942600  0.00910937     0.84300
O231        O  0.68402493  0.41710449  0.01627802    -0.66400
Ni232      Ni  0.58886888  0.49316414  0.09813815     1.27400
Ni233      Ni  0.69841128  0.41203495  0.10402548     1.26100
H234        H  0.67948282  0.35255413  0.06756937     0.38800
O235        O  0.20330970  0.67226173  0.11228471    -0.81100
O236        O  0.12964723  0.60134083  0.23106832    -0.65800
O237        O  0.18915922  0.62010863  0.16054753    -1.12400
C238        C  0.01861960  0.52488166  0.13952874     1.05700
O239        O  0.12291807  0.51081012  0.22204652    -0.79000
O240        O  0.11722197  0.46141556  0.17382637    -0.66600
Ni241      Ni  0.20594998  0.69410405  0.14923856     1.34900
C242        C  0.15541509  0.46724495  0.15655005     0.84500
O243        O  0.21965200  0.65335971  0.21204687    -0.79600
O244        O  0.21594151  0.72514871  0.18437764    -0.89900
C245        C  0.13063609  0.55046009  0.23877350     0.84100
O246        O  0.12821997  0.71164902  0.15094873    -0.68100
O247        O  0.01698350  0.51161388  0.16428385    -0.87300
C248        C  0.09914610  0.71213751  0.17243566     0.84900
C249        C  0.22822564  0.70452756  0.20693957     1.06500
H250        H  0.06602502  0.60456039  0.17910536     0.38300
O251        O  0.09797240  0.58005991  0.17853352    -1.10000
O252        O  0.16528704  0.51359839  0.14503569    -0.66700
Ni253      Ni  0.12632773  0.58402461  0.14319550     1.26300
O254        O  0.11421727  0.68484885  0.19340652    -0.66900
O255        O  0.06059350  0.54821356  0.12808559    -0.79200
C256        C  0.18743308  0.63077873  0.09815137     0.84300
O257        O  0.15710342  0.59137384  0.10744215    -0.66400
Ni258      Ni  0.07058129  0.51262922  0.19268498     1.27400
Ni259      Ni  0.15863415  0.61527166  0.19581741     1.26100
H260        H  0.22244213  0.59712516  0.15927627     0.38800
O261        O  0.22308758  0.16048658  0.02725536    -0.81100
O262        O  0.30864585  0.12804241  0.14058028    -0.65800
O263        O  0.29303982  0.18775415  0.07022801    -1.12400
C264        C  0.42345733  0.06540781  0.04052560     1.05700
O265        O  0.39215105  0.08702751  0.13558154    -0.79000
O266        O  0.42567507  0.16437391  0.09714011    -0.66600
Ni267      Ni  0.22455007  0.21347395  0.05663302     1.34900
C268        C  0.42506107  0.19232347  0.07539445     0.84500
O269        O  0.26317031  0.22422262  0.12089774    -0.79600
O270        O  0.22447801  0.26750414  0.08500799    -0.89900
C271        C  0.34961089  0.09948950  0.14966372     0.84100
O272        O  0.17485993  0.16739778  0.07636371    -0.68100
O273        O  0.44357648  0.07717016  0.06336024    -0.87300
C274        C  0.18222839  0.13029857  0.09405700     0.84900
C275        C  0.23979780  0.26637316  0.10955788     1.06500
H276        H  0.31664019  0.06359874  0.08878348     0.38300
O277        O  0.33773891  0.09793106  0.08749463    -1.10000
O278        O  0.39744221  0.17619258  0.05463875    -0.66700
Ni279      Ni  0.33030313  0.12876824  0.05240942     1.26300
O280        O  0.22993596  0.11915237  0.10405700    -0.66900
O281        O  0.37159465  0.06993604  0.03581096    -0.79200
C282        C  0.26197648  0.15581878  0.00995262     0.84300
O283        O  0.31311932  0.15760345  0.01735037    -0.66400
Ni284      Ni  0.41293038  0.08549311  0.09860186     1.27400
Ni285      Ni  0.29955703  0.15930308  0.10528421     1.26100
H286        H  0.31621956  0.22076365  0.06977444     0.38800
O287        O  0.79835128  0.89242741  0.11097252    -0.81100
O288        O  0.86621369  0.96940726  0.22994588    -0.65800
O289        O  0.81013612  0.94606439  0.15903840    -1.12400
C290        C  0.97909257  0.04561660  0.14006898     1.05700
O291        O  0.86684211  0.05899873  0.21956036    -0.79000
O292        O  0.87549897  0.10767057  0.17183419    -0.66600
Ni293      Ni  0.79486048  0.87133452  0.14780933     1.34900
C294        C  0.83923023  0.10018835  0.15375655     0.84500
O295        O  0.77856426  0.91391041  0.21029113    -0.79600
O296        O  0.78420678  0.84104876  0.18290621    -0.89900
C297        C  0.86254191  0.02086315  0.23699416     0.84100
O298        O  0.87260157  0.85460594  0.15011518    -0.68100
O299        O  0.97742167  0.06077159  0.16465243    -0.87300
C300        C  0.90041923  0.85438381  0.17198576     0.84900
C301        C  0.77141165  0.86233838  0.20542534     1.06500
H302        H  0.93212521  0.96593345  0.17886504     0.38300
O303        O  0.89918422  0.98933152  0.17771496    -1.10000
O304        O  0.83154138  0.05278990  0.14250883    -0.66700
Ni305      Ni  0.87293238  0.98309966  0.14222712     1.26300
O306        O  0.88534620  0.88393969  0.19249458    -0.66900
O307        O  0.93914162  0.01976052  0.12790491    -0.79200
C308        C  0.81380069  0.93412284  0.09713265     0.84300
O309        O  0.84415160  0.97351498  0.10651319    -0.66400
Ni310      Ni  0.92191890  0.05869552  0.19179446     1.27400
Ni311      Ni  0.83912735  0.95281580  0.19448704     1.26100
H312        H  0.77650857  0.96837697  0.15747954     0.38800
O313        O  0.89182053  0.08632200  0.36000564    -0.81100
O314        O  0.81874423  0.15745346  0.47875950    -0.65800
O315        O  0.83906754  0.09820897  0.40824651    -1.12400
C316        C  0.74714151  0.27136645  0.38854409     1.05700
O317        O  0.72875783  0.16378296  0.46925410    -0.79000
O318        O  0.67948457  0.17558273  0.42077553    -0.66600
Ni319      Ni  0.91347874  0.08242536  0.39681150     1.34900
C320        C  0.68375950  0.13700754  0.40334093     0.84500
O321        O  0.87239802  0.06768896  0.45956393    -0.79600
O322        O  0.94439310  0.07139576  0.43194445    -0.89900
C323        C  0.76773296  0.15559634  0.48618271     0.84100
O324        O  0.93090411  0.16034941  0.39901721    -0.68100
O325        O  0.73392605  0.27315697  0.41336958    -0.87300
C326        C  0.93201685  0.18828553  0.42094157     0.84900
C327        C  0.92380882  0.06006073  0.45468975     1.06500
H328        H  0.82362590  0.22141042  0.42697577     0.38300
O329        O  0.79882554  0.18959729  0.42650938    -1.10000
O330        O  0.73061565  0.12324860  0.39289578    -0.66700
Ni331      Ni  0.80221142  0.16110569  0.39129279     1.26300
O332        O  0.90344664  0.17340750  0.44155276    -0.66900
O333        O  0.76753855  0.22789777  0.37660240    -0.79200
C334        C  0.84890930  0.09977935  0.34645412     0.84300
O335        O  0.80900328  0.12962154  0.35586353    -0.66400
Ni336      Ni  0.73213773  0.21812100  0.44087764     1.27400
Ni337      Ni  0.83401539  0.12880448  0.44354144     1.26100
H338        H  0.81659283  0.06473903  0.40686703     0.38800
O339        O  0.11471943  0.49001872  0.36256205    -0.81100
O340        O  0.19033259  0.41497278  0.48070565    -0.65800
O341        O  0.16805456  0.47679453  0.41081105    -1.12400
C342        C  0.26122723  0.30636431  0.38768613     1.05700
O343        O  0.27977800  0.40801939  0.47038610    -0.79000
O344        O  0.32762083  0.40068049  0.42199518    -0.66600
Ni345      Ni  0.09399275  0.49289692  0.39945600     1.34900
C346        C  0.32187488  0.44103206  0.40590156     0.84500
O347        O  0.13532445  0.50460764  0.46255263    -0.79600
O348        O  0.06384776  0.50229112  0.43453565    -0.89900
C349        C  0.24175269  0.41612697  0.48776249     0.84100
O350        O  0.07715355  0.41502663  0.40065076    -0.68100
O351        O  0.27443659  0.30275706  0.41242000    -0.87300
C352        C  0.07632864  0.38544279  0.42186302     0.84900
C353        C  0.08407705  0.51234225  0.45748964     1.06500
H354        H  0.18450654  0.35286384  0.42738009     0.38300
O355        O  0.20907128  0.38485683  0.42745913    -1.10000
O356        O  0.27502501  0.45422033  0.39557835    -0.66700
Ni357      Ni  0.20500197  0.41531024  0.39270836     1.26300
O358        O  0.10475870  0.39930257  0.44285142    -0.66900
O359        O  0.24076463  0.35038490  0.37667506    -0.79200
C360        C  0.15701139  0.47689013  0.34846292     0.84300
O361        O  0.19794718  0.44837360  0.35764329    -0.66400
Ni362      Ni  0.27606868  0.35574397  0.44105782     1.27400
Ni363      Ni  0.17388820  0.44457649  0.44565159     1.26100
H364        H  0.19024889  0.51050852  0.41001689     0.38800
O365        O  0.62371217  0.51155352  0.27543291    -0.81100
O366        O  0.65872815  0.59508277  0.39014832    -0.65800
O367        O  0.59772177  0.57996287  0.31953208    -1.12400
C368        C  0.72008638  0.70900513  0.29031718     1.05700
O369        O  0.70455068  0.67582626  0.38500607    -0.79000
O370        O  0.62440133  0.71202661  0.34807601    -0.66600
Ni371      Ni  0.57305348  0.51108668  0.30540121     1.34900
C372        C  0.59535613  0.71283772  0.32658483     0.84500
O373        O  0.56276015  0.54977017  0.37012937    -0.79600
O374        O  0.52109643  0.50807397  0.33436542    -0.89900
C375        C  0.68998830  0.63427959  0.39914049     0.84100
O376        O  0.62311507  0.46239157  0.32346911    -0.68100
O377        O  0.70855954  0.72976673  0.31311191    -0.87300
C378        C  0.66023372  0.46992919  0.34117816     0.84900
C379        C  0.52188058  0.52414100  0.35885315     1.06500
H380        H  0.72211454  0.60121511  0.33784731     0.38300
O381        O  0.68820392  0.62325633  0.33691605    -1.10000
O382        O  0.60978703  0.68497725  0.30549412    -0.66700
Ni383      Ni  0.65630879  0.61703557  0.30202084     1.26300
O384        O  0.66764511  0.51671296  0.35299987    -0.66900
O385        O  0.71510511  0.65710319  0.28568173    -0.79200
C386        C  0.62940085  0.55133328  0.25884070     0.84300
O387        O  0.62650319  0.60217766  0.26686543    -0.66400
Ni388      Ni  0.70292628  0.69806606  0.34826366     1.27400
Ni389      Ni  0.62701287  0.58616278  0.35466708     1.26100
H390        H  0.56459648  0.60320800  0.31914434     0.38800
O391        O  0.37473916  0.05939289  0.27552583    -0.81100
O392        O  0.34134638  0.98395022  0.38938307    -0.65800
O393        O  0.40160074  0.99227001  0.31878977    -1.12400
C394        C  0.27579383  0.86309847  0.29099996     1.05700
O395        O  0.29458910  0.90319919  0.38507002    -0.79000
O396        O  0.37196825  0.86232374  0.34825643    -0.66600
Ni397      Ni  0.42847416  0.05903557  0.30412223     1.34900
C398        C  0.40139120  0.86006411  0.32693539     0.84500
O399        O  0.43840700  0.02724980  0.36873243    -0.79600
O400        O  0.48297546  0.06072777  0.33206230    -0.89900
C401        C  0.31002527  0.94545278  0.39873030     0.84100
O402        O  0.38303196  0.11121469  0.32306877    -0.68100
O403        O  0.28682345  0.84424834  0.31404009    -0.87300
C404        C  0.34392630  0.10589706  0.33989559     0.84900
C405        C  0.48099846  0.04916762  0.35701194     1.06500
H406        H  0.27712718  0.97457600  0.33739318     0.38300
O407        O  0.31064657  0.95187118  0.33662905    -1.10000
O408        O  0.38743192  0.88662423  0.30553076    -0.66700
Ni409      Ni  0.34200283  0.95517164  0.30158925     1.26300
O410        O  0.33283277  0.05952427  0.35110350    -0.66900
O411        O  0.28249514  0.91441890  0.28548256    -0.79200
C412        C  0.36906960  0.01972546  0.25863662     0.84300
O413        O  0.37138559  0.96873028  0.26629427    -0.66400
Ni414      Ni  0.29410706  0.87839111  0.34869898     1.27400
Ni415      Ni  0.37282318  0.98976530  0.35386446     1.26100
H416        H  0.43405054  0.96808841  0.31867435     0.38800
C417        C  0.54493991  0.74935441  0.32602507    -0.05700
C418        C  0.52024948  0.76591703  0.35034084    -0.33100
C419        C  0.47468707  0.80270830  0.35094526     0.36100
C420        C  0.45184997  0.82343762  0.32682831    -0.06100
C421        C  0.47670545  0.80715403  0.30245262    -0.33000
C422        C  0.52283931  0.77063920  0.30190745     0.36000
H423        H  0.53652862  0.75051353  0.36916804     0.16400
O424        O  0.45309905  0.81811853  0.37537586    -0.60500
H425        H  0.46017944  0.82245590  0.28366251     0.16400
O426        O  0.54629773  0.75677652  0.27768183    -0.60600
H427        H  0.57672175  0.78432699  0.27503921     0.43400
H428        H  0.47377611  0.85244498  0.38062600     0.43300
C429        C  0.47111548  0.51289695  0.37425842    -0.05700
C430        C  0.47397186  0.48351719  0.39832610    -0.33100
C431        C  0.42517040  0.46257226  0.41000494     0.36100
C432        C  0.37265270  0.47165012  0.39755973    -0.06100
C433        C  0.36999541  0.50590915  0.37485981    -0.33000
C434        C  0.41866045  0.52629582  0.36320266     0.36000
H435        H  0.51419887  0.47382595  0.40718032     0.16400
O436        O  0.42954400  0.43225600  0.43316716    -0.60500
H437        H  0.33040455  0.51445505  0.36513691     0.16400
O438        O  0.41474015  0.55709353  0.34016775    -0.60600
H439        H  0.41657844  0.59680467  0.34611570     0.43400
H440        H  0.44250872  0.39444763  0.42748290     0.43300
C441        C  0.27057817  0.25565974  0.37159613    -0.05700
C442        C  0.30004258  0.25835315  0.34749333    -0.33100
C443        C  0.32116575  0.20928683  0.33565953     0.36100
C444        C  0.31228754  0.15673484  0.34802717    -0.06100
C445        C  0.27723431  0.15421398  0.37051465    -0.33000
C446        C  0.25650520  0.20311744  0.38227812     0.36000
H447        H  0.31011509  0.29863183  0.33886264     0.16400
O448        O  0.35190288  0.21351586  0.31257212    -0.60500
H449        H  0.26848089  0.11456889  0.38007198     0.16400
O450        O  0.22522374  0.19934638  0.40522541    -0.60600
H451        H  0.18577094  0.20086577  0.39916152     0.43400
H452        H  0.38946196  0.22623569  0.31837483     0.43300
C453        C  0.96840218  0.23891972  0.42216592    -0.05700
C454        C  0.97931712  0.26795348  0.39841945    -0.33100
C455        C  0.01429074  0.31479004  0.39809121     0.36100
C456        C  0.03997246  0.33433785  0.42195245    -0.06100
C457        C  0.02949148  0.30491472  0.44581146    -0.33000
C458        C  0.99413791  0.25771799  0.44604710     0.36000
H459        H  0.96024310  0.25446043  0.37978507     0.16400
O460        O  0.02247699  0.34124153  0.37411402    -0.60500
H461        H  0.04854072  0.31858331  0.46440822     0.16400
O462        O  0.98577536  0.22997736  0.46966416    -0.60600
H463        H  0.01206946  0.19771981  0.46914825     0.43400
H464        H  0.05562136  0.32259538  0.36604439     0.43300
C465        C  0.69381378  0.42099374  0.34978123    -0.05700
C466        C  0.72237531  0.42398222  0.37427617    -0.33100
C467        C  0.74394564  0.37575044  0.38603460     0.36100
C468        C  0.73700924  0.32316600  0.37339608    -0.06100
C469        C  0.71441622  0.32078987  0.34755828    -0.33000
C470        C  0.69265189  0.36927923  0.33569478     0.36000
H471        H  0.72522102  0.46321936  0.38525495     0.16400
O472        O  0.76919187  0.38006564  0.41063480    -0.60500
H473        H  0.71019552  0.28085641  0.33729336     0.16400
O474        O  0.66913384  0.36529778  0.31069328    -0.60600
H475        H  0.63164361  0.34876917  0.31355533     0.43400
H476        H  0.80897944  0.38822930  0.40674940     0.43300
C477        C  0.63130440  0.10850993  0.39435794    -0.05700
C478        C  0.63360684  0.06737486  0.37408092    -0.33100
C479        C  0.58456713  0.04480693  0.36316619     0.36100
C480        C  0.53180218  0.06290004  0.37244933    -0.06100
C481        C  0.52902624  0.10122493  0.39369351    -0.33000
C482        C  0.57797071  0.12443308  0.40451120     0.36000
H483        H  0.67346890  0.05389642  0.36594639     0.16400
O484        O  0.58855341  0.00651659  0.34261819    -0.60500
H485        H  0.48872548  0.11589328  0.40083546     0.16400
O486        O  0.57274142  0.16393239  0.42446022    -0.60600
H487        H  0.56467017  0.19964776  0.41512823     0.43400
H488        H  0.58784288  0.96934073  0.35138278     0.43300
C489        C  0.75403337  0.82404991  0.22687348    -0.05700
C490        C  0.75900373  0.76588719  0.22243634    -0.33100
C491        C  0.74888160  0.72786764  0.24286108     0.36100
C492        C  0.73355238  0.74764637  0.26842625    -0.06100
C493        C  0.72723052  0.80573049  0.27273140    -0.33000
C494        C  0.73750272  0.84381836  0.25228735     0.36000
H495        H  0.77212570  0.74941685  0.20315654     0.16400
O496        O  0.75569271  0.67167348  0.23770377    -0.60500
H497        H  0.71403522  0.82203952  0.29203360     0.16400
O498        O  0.73064317  0.90003847  0.25736389    -0.60600
H499        H  0.76590422  0.91215956  0.26606933     0.43400
H500        H  0.71949809  0.65911294  0.23011700     0.43300
C501        C  0.84650460  0.07763757  0.31869549    -0.05700
C502        C  0.82612629  0.11079759  0.29785493    -0.33100
C503        C  0.82918997  0.09181666  0.27127304     0.36100
C504        C  0.85234254  0.03837021  0.26515057    -0.06100
C505        C  0.86947917  0.00392322  0.28618992    -0.33000
C506        C  0.86732156  0.02333122  0.31270992     0.36000
H507        H  0.80970986  0.15234410  0.30205687     0.16400
O508        O  0.81058143  0.12660503  0.25138099    -0.60500
H509        H  0.88676426  0.96271012  0.28204270     0.16400
O510        O  0.88515654  0.98853505  0.33276897    -0.60600
H511        H  0.92655052  0.99077896  0.33247984     0.43400
H512        H  0.77086937  0.11636927  0.24856758     0.43300
C513        C  0.34912610  0.07721879  0.17747857    -0.05700
C514        C  0.37941941  0.02764675  0.18296585    -0.33100
C515        C  0.38391165  0.00667534  0.20903505     0.36100
C516        C  0.35817947  0.03529239  0.23038706    -0.06100
C517        C  0.32639977  0.08383571  0.22489296    -0.33000
C518        C  0.32113713  0.10438976  0.19870451     0.36000
H519        H  0.40072352  0.00532023  0.16696299     0.16400
O520        O  0.41583981  0.95979322  0.21354722    -0.60500
H521        H  0.30638548  0.10667200  0.24112029     0.16400
O522        O  0.29151250  0.15283973  0.19442862    -0.60600
H523        H  0.25210047  0.14082013  0.19238440     0.43400
H524        H  0.45426221  0.97392732  0.21664257     0.43300
C525        C  0.13219150  0.10092807  0.10426859    -0.05700
C526        C  0.08299571  0.09855418  0.08871393    -0.33100
C527        C  0.03298881  0.07767441  0.09939924     0.36100
C528        C  0.03166780  0.05911486  0.12602943    -0.06100
C529        C  0.08134613  0.05937630  0.14110499    -0.33000
C530        C  0.13087051  0.08065535  0.13067466     0.36000
H531        H  0.08279768  0.11463778  0.06848056     0.16400
O532        O  0.98498430  0.07986947  0.08443218    -0.60500
H533        H  0.08128594  0.04524180  0.16168886     0.16400
O534        O  0.17664960  0.08462936  0.14713812    -0.60600
H535        H  0.17355609  0.12208730  0.15580396     0.43400
H536        H  0.98482736  0.04455979  0.07383767     0.43300
C537        C  0.26176335  0.82255263  0.26969366    -0.05700
C538        C  0.26953952  0.83775797  0.24292494    -0.33100
C539        C  0.26210255  0.79876542  0.22237275     0.36100
C540        C  0.24578315  0.74335743  0.22834692    -0.06100
C541        C  0.23912814  0.72774045  0.25514848    -0.33000
C542        C  0.24662960  0.76678244  0.27573479     0.36000
H543        H  0.28251721  0.87983157  0.23782540     0.16400
O544        O  0.27008168  0.81576953  0.19647070    -0.60500
H545        H  0.22603552  0.68567897  0.26021209     0.16400
O546        O  0.23877405  0.74982047  0.30165419    -0.60600
H547        H  0.19881230  0.75754133  0.30553572     0.43400
H548        H  0.30933852  0.80562401  0.19220853     0.43300
C549        C  0.14267491  0.53552615  0.26701079    -0.05700
C550        C  0.17508956  0.48750615  0.27268099    -0.33100
C551        C  0.18275952  0.46903098  0.29912624     0.36100
C552        C  0.15657028  0.49780045  0.32041282    -0.06100
C553        C  0.12557891  0.54677101  0.31466414    -0.33000
C554        C  0.11856418  0.56556424  0.28836629     0.36000
H555        H  0.19390125  0.46366125  0.25645504     0.16400
O556        O  0.21290254  0.42102324  0.30368409    -0.60500
H557        H  0.10538555  0.57015734  0.33065895     0.16400
O558        O  0.08566958  0.61170526  0.28369604    -0.60600
H559        H  0.04711781  0.59697066  0.28188369     0.43400
H560        H  0.25227056  0.43344979  0.30534304     0.43300
C561        C  0.95093134  0.81739765  0.17321439    -0.05700
C562        C  0.97277279  0.79561217  0.14914059    -0.33100
C563        C  0.01955649  0.76042648  0.14885288     0.36100
C564        C  0.04697545  0.74651725  0.17293894    -0.06100
C565        C  0.02452218  0.76681369  0.19722840    -0.33000
C566        C  0.97683425  0.80172571  0.19751973     0.36000
H567        H  0.95354901  0.80588631  0.13014704     0.16400
O568        O  0.03786572  0.73967160  0.12469274    -0.60500
H569        H  0.04433775  0.75619998  0.21604177     0.16400
O570        O  0.95603334  0.81995573  0.22165587    -0.60600
H571        H  0.92745907  0.79188799  0.22666681     0.43400
H572        H  0.02064562  0.70204473  0.12300166     0.43300
C573        C  0.18754367  0.41691457  0.14825021    -0.05700
C574        C  0.21921014  0.41901139  0.12464427    -0.33100
C575        C  0.24030169  0.37010859  0.11307635     0.36100
C576        C  0.22977300  0.31790230  0.12499974    -0.06100
C577        C  0.20391044  0.31596621  0.15007789    -0.33000
C578        C  0.18255944  0.36512480  0.16177580     0.36000
H579        H  0.22503074  0.45818661  0.11417328     0.16400
O580        O  0.26865339  0.37343869  0.08925816    -0.60500
H581        H  0.19692674  0.27605812  0.15973790     0.16400
O582        O  0.15576919  0.36177222  0.18600714    -0.60600
H583        H  0.11834513  0.34611198  0.18193110     0.43400
H584        H  0.30880194  0.37250220  0.09420463     0.43300
C585        C  0.65302915  0.49615837  0.17702064    -0.05700
C586        C  0.62800469  0.54867072  0.18267512    -0.33100
C587        C  0.62282279  0.56897062  0.20899800     0.36100
C588        C  0.64171553  0.53619023  0.23047001    -0.06100
C589        C  0.66935063  0.48506900  0.22475517    -0.33000
C590        C  0.67544460  0.46523211  0.19835268     0.36000
H591        H  0.61120743  0.57386841  0.16657087     0.16400
O592        O  0.59556662  0.61883775  0.21355395    -0.60500
H593        H  0.68520134  0.45952585  0.24094742     0.16400
O594        O  0.70133405  0.41465530  0.19381303    -0.60600
H595        H  0.67153539  0.38618165  0.19573204     0.43400
H596        H  0.62349666  0.64831041  0.20970172     0.43300
C597        C  0.53224732  0.33744623  0.07357559    -0.05700
C598        C  0.49967080  0.32519859  0.09628755    -0.33100
C599        C  0.46353730  0.27937808  0.09664786     0.36100
C600        C  0.45918153  0.24392105  0.07413634    -0.06100
C601        C  0.49012320  0.25659071  0.05104485    -0.33000
C602        C  0.52673236  0.30263404  0.05067089     0.36000
H603        H  0.50200905  0.35124669  0.11410219     0.16400
O604        O  0.43244424  0.26973654  0.11922875    -0.60500
H605        H  0.48722020  0.22973415  0.03350981     0.16400
O606        O  0.55665496  0.31299906  0.02782801    -0.60600
H607        H  0.59109819  0.28998809  0.02944999     0.43400
H608        H  0.39518377  0.28634387  0.11549028     0.43300
C609        C  0.86747430  0.46989132  0.10194364    -0.05700
C610        C  0.91983309  0.45654517  0.09039047    -0.33100
C611        C  0.96966181  0.47760392  0.10117777     0.36100
C612        C  0.96787164  0.51219854  0.12398608    -0.06100
C613        C  0.91587415  0.52864117  0.13449195    -0.33000
C614        C  0.86596171  0.50822905  0.12362044     0.36000
H615        H  0.92259763  0.42766493  0.07360427     0.16400
O616        O  0.01987457  0.46002747  0.09078533    -0.60500
H617        H  0.91404233  0.55588142  0.15194192     0.16400
O618        O  0.81625792  0.52496985  0.13487948    -0.60600
H619        H  0.81090314  0.50027499  0.15056153     0.43400
H620        H  0.03054161  0.48928806  0.07776068     0.43300
C621        C  0.76575769  0.24944006  0.12110633    -0.05700
C622        C  0.78711417  0.25050469  0.14718601    -0.33100
C623        C  0.80785193  0.20134592  0.15890874     0.36100
C624        C  0.80713245  0.14994604  0.14448603    -0.06100
C625        C  0.78021696  0.14819430  0.11953116    -0.33000
C626        C  0.75981833  0.19731581  0.10781950     0.36000
H627        H  0.79077150  0.28995885  0.15791894     0.16400
O628        O  0.82952865  0.20428751  0.18431672    -0.60500
H629        H  0.77754563  0.10922846  0.10832265     0.16400
O630        O  0.73440938  0.19412247  0.08320268    -0.60600
H631        H  0.76521848  0.18895442  0.07011692     0.43400
H632        H  0.86737592  0.22050588  0.18221494     0.43300
C633        C  0.78979412  0.44085665  0.92747617    -0.05700
C634        C  0.81944721  0.46628846  0.94847402    -0.33100
C635        C  0.80088029  0.46144177  0.97507309     0.36100
C636        C  0.75143865  0.43149032  0.98103091    -0.06100
C637        C  0.72006408  0.40921719  0.95990643    -0.33000
C638        C  0.73886490  0.41334123  0.93344642     0.36000
H639        H  0.85811944  0.48812433  0.94441053     0.16400
O640        O  0.83203593  0.48526369  0.99517654    -0.60500
H641        H  0.68197521  0.38636892  0.96398686     0.16400
O642        O  0.70742423  0.38910008  0.91355353    -0.60600
H643        H  0.68360080  0.41977680  0.90654046     0.43400
H644        H  0.81649568  0.52358945  0.99753201     0.43300
C645        C  0.20758417  0.13868445  0.92743151    -0.05700
C646        C  0.25826331  0.16578809  0.93386601    -0.33100
C647        C  0.27776593  0.16947266  0.96034359     0.36100
C648        C  0.24602428  0.14700116  0.98134703    -0.06100
C649        C  0.19596337  0.11873852  0.97497107    -0.33000
C650        C  0.17703153  0.11395679  0.94834427     0.36000
H651        H  0.28298856  0.18488828  0.91823905     0.16400
O652        O  0.32595470  0.19852021  0.96562881    -0.60500
H653        H  0.17095751  0.10070162  0.99078882     0.16400
O654        O  0.12796640  0.08637720  0.94318448    -0.60600
H655        H  0.09837420  0.11550799  0.94445474     0.43400
H656        H  0.35679932  0.17367421  0.95950430     0.43300
C657        C  0.05190888  0.26118246  0.82418532    -0.05700
C658        C  0.01512582  0.25973054  0.80214481    -0.33100
C659        C  0.96729645  0.29407253  0.80144262     0.36100
C660        C  0.95500500  0.32997042  0.82315680    -0.06100
C661        C  0.99205148  0.33252628  0.84482682    -0.33000
C662        C  0.04036120  0.29937669  0.84536038     0.36000
H663        H  0.02279119  0.23116823  0.78557947     0.16400
O664        O  0.93102668  0.28954351  0.78027084    -0.60500
H665        H  0.98344323  0.36049938  0.86154315     0.16400
O666        O  0.07536621  0.30428841  0.86700048    -0.60600
H667        H  0.10073536  0.33570794  0.86261067     0.43400
H668        H  0.94390133  0.31765738  0.76712955     0.43300
C669        C  0.53966166  0.53412098  0.01925163    -0.05700
C670        C  0.55797721  0.53490659  0.99259698    -0.33100
C671        C  0.52078473  0.54647846  0.97175970     0.36100
C672        C  0.46370061  0.55714944  0.97733409    -0.06100
C673        C  0.44563502  0.55728065  0.00402249    -0.33000
C674        C  0.48280057  0.54598792  0.02484573     0.36000
H675        H  0.60112738  0.52535694  0.98771294     0.16400
O676        O  0.54067085  0.54586171  0.94599029    -0.60500
H677        H  0.40249264  0.56679158  0.00894724     0.16400
O678        O  0.46294766  0.54742672  0.05062514    -0.60600
H679        H  0.44382826  0.51101253  0.05315710     0.43400
H680        H  0.55875481  0.58283868  0.94356622     0.43300
C681        C  0.24517103  0.64741988  0.01636100    -0.05700
C682        C  0.19006140  0.62929472  0.02179892    -0.33100
C683        C  0.17140385  0.62009977  0.04814133     0.36100
C684        C  0.20742384  0.63007707  0.06985688    -0.06100
C685        C  0.26299968  0.64599274  0.06445535    -0.33000
C686        C  0.28207175  0.65410435  0.03812453     0.36000
H687        H  0.16067932  0.62314930  0.00554441     0.16400
O688        O  0.11680603  0.60538392  0.05245725    -0.60500
H689        H  0.29166514  0.65346412  0.08089133     0.16400
O690        O  0.33640018  0.67007788  0.03405556    -0.60600
H691        H  0.33659512  0.71128047  0.03684412     0.43400
H692        H  0.11693864  0.56382542  0.05288723     0.43300
C693        C  0.02911143  0.56190362  0.87398100    -0.05700
C694        C  0.02619838  0.59267187  0.89788193    -0.33100
C695        C  0.07488657  0.61469873  0.90949604     0.36100
C696        C  0.12774165  0.60526223  0.89727903    -0.06100
C697        C  0.13047231  0.57044988  0.87453897    -0.33000
C698        C  0.08185568  0.54897186  0.86293214     0.36000
H699        H  0.98591086  0.60258742  0.90667838     0.16400
O700        O  0.06996938  0.64645142  0.93240227    -0.60500
H701        H  0.17015167  0.56191386  0.86485065     0.16400
O702        O  0.08610716  0.51722281  0.84000175    -0.60600
H703        H  0.09142090  0.47817304  0.84623182     0.43400
H704        H  0.05752510  0.68400648  0.92633977     0.43300
C705        C  0.22078305  0.82258946  0.87354609    -0.05700
C706        C  0.23491655  0.87462537  0.88483326    -0.33100
C707        C  0.21517048  0.92454616  0.87390517     0.26500
C708        C  0.18058712  0.92320846  0.85100253    -0.06100
C709        C  0.16946701  0.87089560  0.83870356    -0.33000
C710        C  0.18944694  0.82082424  0.84980005     0.36000
H711        H  0.25959049  0.87649453  0.90302860     0.16400
O712        O  0.22821010  0.97405758  0.88654804    -0.60500
H713        H  0.14312184  0.86841039  0.82109518     0.16400
O714        O  0.17392974  0.77050200  0.83868027    -0.60600
H715        H  0.20457242  0.76038507  0.82615886     0.43400
H716        H  0.19997499  0.97850338  0.90096989     0.43300
C717        C  0.54256011  0.03783555  0.97755244    -0.05700
C718        C  0.48484445  0.03685892  0.97199253    -0.33100
C719        C  0.44544770  0.04444295  0.99221602     0.36100
C720        C  0.46328983  0.05298248  0.01874329    -0.06100
C721        C  0.52106375  0.05515569  0.02424334    -0.33000
C722        C  0.56051760  0.04775032  0.00397235     0.36000
H723        H  0.46968430  0.02906158  0.95187190     0.16400
O724        O  0.38974208  0.04258361  0.98575992    -0.60500
H725        H  0.53614230  0.06311402  0.04436602     0.16400
O726        O  0.61627980  0.05097272  0.01023976    -0.60600
H727        H  0.62639288  0.01345356  0.01722118     0.43400
H728        H  0.38033475  0.08082056  0.97948097     0.43300
C729        C  0.75207650  0.93191347  0.01583570    -0.05700
C730        C  0.80246153  0.95963546  0.02207728    -0.33100
C731        C  0.82254896  0.96238581  0.04845695     0.36100
C732        C  0.79282226  0.93610705  0.06913173    -0.06100
C733        C  0.74154287  0.90995434  0.06294610    -0.33000
C734        C  0.72086240  0.90836140  0.03670133     0.36000
H735        H  0.82693965  0.97856513  0.00630934     0.16400
O736        O  0.87189725  0.98950236  0.05359470    -0.60500
H737        H  0.71732973  0.89015296  0.07855883     0.16400
O738        O  0.67201608  0.88045123  0.03147092    -0.60600
H739        H  0.64201769  0.90878290  0.03406892     0.43400
H740        H  0.90112397  0.95994174  0.05274250     0.43300
C741        C  0.46046795  0.75204086  0.92260480    -0.05700
C742        C  0.47785468  0.77537561  0.89821926    -0.33100
C743        C  0.51425934  0.82109278  0.89738379     0.36100
C744        C  0.53488377  0.84527352  0.92129855    -0.06100
C745        C  0.51783146  0.82196485  0.94584458    -0.33000
C746        C  0.48081893  0.77606569  0.94663982     0.36000
H747        H  0.46342909  0.75785939  0.87938470     0.16400
O748        O  0.53107313  0.84028231  0.87284683    -0.60500
H749        H  0.53295426  0.83951418  0.96454300     0.16400
O750        O  0.46683050  0.75375222  0.97095513    -0.60600
H751        H  0.43439764  0.77621258  0.97728771     0.43400
H752        H  0.49994959  0.86432154  0.86646713     0.43300
C753        C  0.86699143  0.98174139  0.89523607    -0.05700
C754        C  0.91801792  0.97760081  0.90927934    -0.33100
C755        C  0.96746475  0.99901262  0.89843255     0.36100
C756        C  0.96618980  0.02440544  0.87316520    -0.06100
C757        C  0.91478169  0.03271911  0.86028327    -0.33000
C758        C  0.86546620  0.01204675  0.87108131     0.36000
H759        H  0.92022605  0.95530371  0.92807604     0.16400
O760        O  0.01720239  0.99010545  0.91141090    -0.60500
H761        H  0.91319541  0.05303000  0.84094137     0.16400
O762        O  0.81707325  0.01771462  0.85658231    -0.60600
H763        H  0.80082553  0.05412151  0.86240015     0.43400
H764        H  0.02245580  0.02364371  0.92297168     0.43300
C765        C  0.81060839  0.65711753  0.85190447    -0.05700
C766        C  0.81528412  0.70745136  0.83736797    -0.33100
C767        C  0.79568705  0.75836859  0.84802893     0.36100
C768        C  0.77122124  0.75934434  0.87356077    -0.06100
C769        C  0.76273800  0.70875663  0.88712744    -0.33000
C770        C  0.78235585  0.65806317  0.87667358     0.36000
H771        H  0.83657575  0.70789898  0.81822569     0.16400
O772        O  0.80534794  0.80722891  0.83451274    -0.60500
H773        H  0.74322357  0.70890357  0.90672232     0.16400
O774        O  0.77655531  0.61048524  0.89169074    -0.60600
H775        H  0.80933426  0.61008374  0.90386832     0.43400
H776        H  0.77280037  0.81173476  0.82241106     0.43300
C777        C  0.74543940  0.24899968  0.72695305    -0.05700
C778        C  0.73021227  0.23526280  0.75322677    -0.33100
C779        C  0.73627566  0.27410948  0.77403407     0.36100
C780        C  0.75839892  0.32766330  0.76880897    -0.06100
C781        C  0.77343912  0.34149331  0.74254087    -0.33000
C782        C  0.76741458  0.30264025  0.72173222     0.36000
H783        H  0.71206803  0.19478873  0.75759552     0.16400
O784        O  0.72050062  0.25916852  0.79940533    -0.60500
H785        H  0.79172440  0.38192643  0.73820478     0.16400
O786        O  0.78336518  0.31757070  0.69638939    -0.60600
H787        H  0.82307733  0.30586195  0.69489914     0.43400
H788        H  0.68170895  0.27339296  0.80144372     0.43300
C789        C  0.71463861  0.13022967  0.56791430    -0.05700
C790        C  0.76892093  0.14964009  0.56225451    -0.33100
C791        C  0.78787976  0.15537963  0.53586140     0.36100
C792        C  0.75210599  0.14266991  0.51432319    -0.06100
C793        C  0.69884904  0.12034745  0.51995134    -0.33000
C794        C  0.68042114  0.11323396  0.54645201     0.36000
H795        H  0.79654284  0.16177290  0.57847032     0.16400
O796        O  0.84065119  0.17560686  0.53144682    -0.60500
H797        H  0.67083227  0.10929766  0.50371861     0.16400
O798        O  0.62760398  0.09334665  0.55103225    -0.60600
H799        H  0.63118784  0.05193816  0.55007324     0.43400
H800        H  0.83613849  0.21686524  0.53028064     0.43300
C801        C  0.64651364  0.03634078  0.76488726    -0.05700
C802        C  0.64645427  0.07598775  0.78582796    -0.33100
C803        C  0.65220093  0.05904377  0.81263047     0.36100
C804        C  0.65841084  0.00168764  0.81901501    -0.06100
C805        C  0.66172898  0.96246216  0.79820270    -0.33000
C806        C  0.65538756  0.97899368  0.77147304     0.36000
H807        H  0.64064244  0.12007737  0.78152558     0.16400
O808        O  0.65097859  0.09892640  0.83254464    -0.60500
H809        H  0.66675029  0.91835117  0.80271739     0.16400
O810        O  0.65784390  0.93823482  0.75197849    -0.60600
H811        H  0.61998233  0.92142909  0.75152205     0.43400
H812        H  0.69075572  0.10614630  0.83695307     0.43300
C813        C  0.26857350  0.32758696  0.72819883    -0.05700
C814        C  0.25120093  0.27308652  0.72129743    -0.33100
C815        C  0.24019987  0.23333022  0.74097505     0.36100
C816        C  0.24611238  0.24786847  0.76822070    -0.06100
C817        C  0.26423138  0.30212988  0.77507015    -0.33000
C818        C  0.27531135  0.34180426  0.75540871     0.36000
H819        H  0.24599568  0.26104105  0.70048470     0.16400
O820        O  0.22133739  0.18139869  0.73331357    -0.60500
H821        H  0.26942954  0.31427856  0.79586667     0.16400
O822        O  0.29477007  0.39350633  0.76307013    -0.60600
H823        H  0.26088163  0.41606686  0.76715639     0.43400
H824        H  0.25516586  0.16025218  0.72767289     0.43300
C825        C  0.29541428  0.44222625  0.56984470    -0.05700
C826        C  0.33249295  0.45136089  0.54871839    -0.33100
C827        C  0.31533942  0.44383625  0.52205454     0.36100
C828        C  0.25936822  0.42850236  0.51593371    -0.06100
C829        C  0.22144374  0.42289331  0.53716047    -0.33000
C830        C  0.23920282  0.42879049  0.56386700     0.36000
H831        H  0.37570646  0.46172573  0.55289189     0.16400
O832        O  0.35398124  0.45164869  0.50214201    -0.60500
H833        H  0.17832670  0.41192937  0.53315163     0.16400
O834        O  0.20108995  0.42181115  0.58409131    -0.60600
H835        H  0.19640804  0.38068451  0.58575186     0.43400
H836        H  0.37587272  0.41625655  0.50132301     0.43300
C837        C  0.34488668  0.58351229  0.81938531    -0.05700
C838        C  0.37524344  0.53383430  0.81386065    -0.33100
C839        C  0.38249222  0.51363643  0.78760171     0.36100
C840        C  0.35992262  0.54332264  0.76591235    -0.06100
C841        C  0.32758527  0.59178061  0.77139400    -0.33000
C842        C  0.31943063  0.61149108  0.79782061     0.36000
H843        H  0.39458569  0.51083371  0.83006384     0.16400
O844        O  0.41383991  0.46613484  0.78335276    -0.60500
H845        H  0.30920302  0.61507698  0.75503491     0.16400
O846        O  0.28811395  0.65897019  0.80218133    -0.60600
H847        H  0.31398816  0.69064062  0.79908194     0.43400
H848        H  0.45278280  0.47947422  0.78118511     0.43300
C849        C  0.55479095  0.25268032  0.66988242    -0.05700
C850        C  0.54187476  0.28445600  0.69284946    -0.33100
C851        C  0.49555523  0.32093845  0.69333410     0.36100
C852        C  0.46084869  0.32619083  0.67054298    -0.06100
C853        C  0.47406158  0.29390141  0.64761540    -0.33000
C854        C  0.52012682  0.25748351  0.64720324     0.36000
H855        H  0.56836939  0.28170835  0.71039648     0.16400
O856        O  0.48525848  0.35164985  0.71612336    -0.60500
H857        H  0.44828815  0.29630167  0.62982168     0.16400
O858        O  0.53036333  0.22612833  0.62456661    -0.60600
H859        H  0.51305628  0.18914332  0.62801472     0.43400
H860        H  0.46256657  0.32683438  0.72764477     0.43300
C861        C  0.96444910  0.54283081  0.51942605    -0.05700
C862        C  0.02185446  0.54046455  0.52562579    -0.33100
C863        C  0.06172048  0.53273935  0.50569367     0.36100
C864        C  0.04447664  0.52651209  0.47895123    -0.06100
C865        C  0.98698356  0.52783843  0.47281897    -0.33000
C866        C  0.94712174  0.53534093  0.49276799     0.36000
H867        H  0.03643886  0.54585810  0.54601798     0.16400
O868        O  0.11711469  0.53039624  0.51274811    -0.60500
H869        H  0.97235695  0.52220816  0.45244703     0.16400
O870        O  0.89165494  0.53642443  0.48579008    -0.60600
H871        H  0.87935656  0.49679660  0.48650343     0.43400
H872        H  0.12944502  0.57000703  0.51371985     0.43300
C873        C  0.71267407  0.63303194  0.42701215    -0.05700
C874        C  0.76543155  0.65724998  0.43216997    -0.33100
C875        C  0.78652566  0.66258429  0.45834879     0.36100
C876        C  0.75436949  0.64466737  0.48022456    -0.06100
C877        C  0.70269232  0.61826393  0.47497965    -0.33000
C878        C  0.68206745  0.61200281  0.44874941     0.36000
H879        H  0.79021524  0.67325542  0.41577303     0.16400
O880        O  0.83666905  0.68900385  0.46237620    -0.60500
H881        H  0.67735268  0.60342085  0.49143216     0.16400
O882        O  0.63097797  0.58741545  0.44479423    -0.60600
H883        H  0.60350430  0.61862718  0.44563235     0.43400
H884        H  0.86557696  0.66028518  0.45827779     0.43300
C885        C  0.84981790  0.57855702  0.67734545    -0.05700
C886        C  0.86869557  0.52387446  0.68319448    -0.33100
C887        C  0.87196175  0.50462418  0.70966898     0.36100
C888        C  0.85721712  0.54050879  0.73105490    -0.06100
C889        C  0.83661360  0.59454115  0.72508995    -0.33000
C890        C  0.83217366  0.61327976  0.69857301     0.36000
H891        H  0.88174684  0.49601957  0.66711698     0.16400
O892        O  0.89125771  0.45135640  0.71436772    -0.60500
H893        H  0.82456293  0.62292995  0.74112491     0.16400
O894        O  0.81398420  0.66686865  0.69379755    -0.60600
H895        H  0.77262600  0.66437777  0.69331257     0.43400
H896        H  0.93250939  0.45479289  0.71533925     0.43300
C897        C  0.63777962  0.60079956  0.60098161    -0.05700
C898        C  0.58627950  0.60998476  0.58783776    -0.33100
C899        C  0.53597736  0.59039271  0.59864413     0.36100
C900        C  0.53649895  0.56200399  0.62314734    -0.06100
C901        C  0.58795261  0.54876329  0.63511846    -0.33000
C902        C  0.63832799  0.56694400  0.62405077     0.36000
H903        H  0.58444234  0.63479589  0.56977428     0.16400
O904        O  0.48638232  0.60368450  0.58642029    -0.60500
H905        H  0.58894143  0.52574071  0.65375157     0.16400
O906        O  0.68727745  0.55423876  0.63700629    -0.60600
H907        H  0.70142818  0.51974636  0.62805196     0.43400
H908        H  0.48043975  0.57362353  0.57291044     0.43300
C909        C  0.73750591  0.82173546  0.62318706    -0.05700
C910        C  0.71530679  0.82130342  0.64911631    -0.33100
C911        C  0.69384967  0.87076284  0.66049581     0.36100
C912        C  0.69461477  0.92128472  0.64574877    -0.06100
C913        C  0.72279850  0.92236304  0.62115833    -0.33000
C914        C  0.74383887  0.87314538  0.60981540     0.36000
H915        H  0.71126043  0.78215426  0.65980809     0.16400
O916        O  0.66970142  0.86845733  0.68537196    -0.60500
H917        H  0.72555422  0.96074376  0.60976180     0.16400
O918        O  0.76939359  0.87533221  0.58522219    -0.60600
H919        H  0.73864096  0.87978495  0.57206600     0.43400
H920        H  0.69825074  0.88355692  0.69786013     0.43300
C921        C  0.04002180  0.02503862  0.51812815    -0.05700
C922        C  0.98235536  0.01636786  0.52201969    -0.33100
C923        C  0.94390408  0.02600144  0.50148393     0.36100
C924        C  0.96278643  0.04436254  0.47636169    -0.06100
C925        C  0.02046097  0.05264181  0.47243818    -0.33000
C926        C  0.05886385  0.04303984  0.49293482     0.36000
H927        H  0.96671940  0.00139719  0.54101901     0.16400
O928        O  0.88825916  0.01622510  0.50609475    -0.60500
H929        H  0.03618430  0.06773754  0.45347733     0.16400
O930        O  0.11447860  0.05272038  0.48820923    -0.60600
H931        H  0.12854856  0.01818087  0.47926576     0.43400
H932        H  0.87416199  0.05051497  0.51524494     0.43300
C933        C  0.15686976  0.00135785  0.67681447    -0.05700
C934        C  0.13278149  0.05443094  0.68211314    -0.33100
C935        C  0.12577831  0.07464764  0.70840334     0.36100
C936        C  0.14198187  0.04127129  0.73018306    -0.06100
C937        C  0.16840466  0.98932414  0.72487678    -0.33000
C938        C  0.17622074  0.96952627  0.69853863     0.36000
H939        H  0.11790206  0.08001335  0.66572264     0.16400
O940        O  0.09900265  0.12493688  0.71258631    -0.60500
H941        H  0.18198225  0.96316182  0.74130911     0.16400
O942        O  0.20044487  0.91799050  0.69439853    -0.60600
H943        H  0.16935828  0.89073565  0.69558482     0.43400
H944        H  0.12587313  0.15401735  0.70684052     0.43300
C945        C  0.25533224  0.93517987  0.48077610    -0.05700
C946        C  0.21831798  0.92305466  0.45981575    -0.33100
C947        C  0.23515654  0.92836835  0.43306001     0.36100
C948        C  0.28939163  0.94784304  0.42673833    -0.06100
C949        C  0.32503876  0.96379541  0.44760492    -0.33000
C950        C  0.30886311  0.95687140  0.47439983     0.36000
H951        H  0.17698276  0.90702823  0.46410156     0.16400
O952        O  0.19815797  0.91434662  0.41312051    -0.60500
H953        H  0.36666015  0.97891670  0.44318547     0.16400
O954        O  0.34592723  0.97146630  0.49419993    -0.60600
H955        H  0.37285131  0.93979723  0.49517405     0.43400
H956        H  0.19792446  0.87276034  0.41255509     0.43300
C957        C  0.04462453  0.83193300  0.57516421    -0.05700
C958        C  0.01586631  0.81599721  0.55181082    -0.33100
C959        C  0.98009383  0.76924927  0.55153701     0.36100
C960        C  0.97232278  0.73707879  0.57496124    -0.06100
C961        C  0.00253037  0.75252609  0.59809859    -0.33000
C962        C  0.03831098  0.79898678  0.59829880     0.36000
H963        H  0.02001684  0.84072228  0.53380719     0.16400
O964        O  0.95229082  0.75623526  0.52832038    -0.60500
H965        H  0.99847932  0.72856501  0.61633341     0.16400
O966        O  0.06711483  0.81165053  0.62131127    -0.60600
H967        H  0.10402962  0.79303060  0.61920644     0.43400
H968        H  0.97885416  0.73292739  0.51776788     0.43300
C969        C  0.37212204  0.97677238  0.60066634    -0.05700
C970        C  0.42371392  0.96566182  0.58785206    -0.33100
C971        C  0.47401465  0.98557738  0.59853172     0.36100
C972        C  0.47325104  0.01733059  0.62224293    -0.06100
C973        C  0.42187846  0.03176558  0.63403021    -0.33000
C974        C  0.37160819  0.01179487  0.62354004     0.36000
H975        H  0.42560063  0.93901025  0.57021873     0.16400
O976        O  0.52371617  0.96914954  0.58718714    -0.60500
H977        H  0.42093131  0.05655431  0.65230755     0.16400
O978        O  0.32272725  0.02481820  0.63658337    -0.60600
H979        H  0.31940743  0.99671436  0.65104317     0.43400
H980        H  0.53249532  0.99850082  0.57389413     0.43300
C981        C  0.27541293  0.75712200  0.62194447    -0.05700
C982        C  0.27084615  0.70621343  0.60781061    -0.33100
C983        C  0.29019336  0.65616366  0.61869650     0.36100
C984        C  0.31483498  0.65621685  0.64433724    -0.06100
C985        C  0.31504844  0.70650956  0.65940111    -0.33000
C986        C  0.29505765  0.75670865  0.64843938     0.36000
H987        H  0.25433035  0.70553640  0.58759314     0.16400
O988        O  0.28752926  0.60823400  0.60338736    -0.60500
H989        H  0.33302320  0.70750800  0.67931095     0.16400
O990        O  0.29933833  0.80556248  0.66291740    -0.60600
H991        H  0.26402952  0.80829507  0.67325882     0.43400
H992        H  0.32207422  0.60818016  0.59239673     0.43300
loop_ 
_geom_bond_atom_site_label_1 
_geom_bond_atom_site_label_2 
_geom_bond_distance 
_geom_bond_site_symmetry_2 
_ccdc_geom_bond_type 
O1           Ni7   1.921       .  S
O1           C22   1.271       .  A
O2          Ni25   1.938       .  S
O2           C11   1.279       .  A
O3           Ni7   1.873       .  S
O3          Ni25   1.887       .  S
O3          Ni19   1.881       .  S
O3           H26   0.965       .  S
C4           O21   1.266       .  A
C4           O13   1.270   1_545  A
C4          C921   1.479       .  S
O5          Ni24   1.915       .  S
O5           C11   1.272       .  A
O6          Ni24   1.912       .  S
O6            C8   1.279       .  A
Ni7          O10   1.903       .  S
Ni7          O12   1.894       .  S
C8           O18   1.291       .  A
C8          C957   1.490       .  S
O9          Ni25   1.943       .  S
O9           C15   1.287       .  A
O10          C15   1.280       .  A
C11         C933   1.492   1_565  S
O12          C14   1.266       .  A
O13         Ni24   1.927       .  S
C14          O20   1.274       .  A
C14         C969   1.485       .  S
C15         C981   1.473       .  S
H16          O17   0.967   1_545  S
O17         Ni25   1.939       .  S
O17         Ni19   1.907       .  S
O17         Ni24   1.903       .  S
O18         Ni19   1.979       .  S
Ni19         O23   1.925       .  S
Ni19         O21   1.900   1_565  S
O20         Ni25   1.929       .  S
C22          O23   1.279       .  A
C22         C945   1.490       .  S
O27         Ni33   1.926       .  S
O27          C48   1.272       .  A
O28         Ni51   1.931       .  S
O28          C37   1.276       .  A
O29         Ni33   1.880       .  S
O29         Ni51   1.895       .  S
O29         Ni45   1.880       .  S
O29          H52   0.966       .  S
C30          O47   1.264       .  A
C30          O39   1.265       .  A
C30         C861   1.467       .  S
O31         Ni50   1.912       .  S
O31          C37   1.269       .  A
O32         Ni50   1.915       .  S
O32          C34   1.281       .  A
Ni33         O36   1.907       .  S
Ni33         O38   1.899       .  S
C34          O44   1.292       .  A
C34         C960   1.503       .  S
O35         Ni51   1.933       .  S
O35          C41   1.283       .  A
O36          C41   1.279       .  A
C37         C885   1.488       .  S
O38          C40   1.266       .  A
O39         Ni50   1.907       .  S
C40          O46   1.273       .  A
C40         C897   1.489       .  S
C41         C909   1.469       .  S
H42          O43   0.966       .  S
O43         Ni51   1.932       .  S
O43         Ni45   1.913       .  S
O43         Ni50   1.905       .  S
O44         Ni45   1.980       .  S
Ni45         O49   1.935       .  S
Ni45         O47   1.896       .  S
O46         Ni51   1.929       .  S
C48          O49   1.279       .  A
C48         C876   1.495       .  S
O53         Ni59   1.914       .  S
O53          C74   1.270       .  A
O54         Ni77   1.929       .  S
O54          C63   1.280       .  A
O55         Ni59   1.903       .  S
O55         Ni77   1.907       .  S
O55         Ni71   1.940       .  S
O55          H78   0.966       .  S
C56          O73   1.286       .  A
C56          O65   1.281       .  A
C56         C900   1.474       .  S
O57         Ni76   1.933       .  S
O57          C63   1.274       .  A
O58         Ni76   1.901       .  S
O58          C60   1.267       .  A
Ni59         O62   1.922       .  S
Ni59         O64   1.907       .  S
C60          O70   1.272       .  A
C60         C984   1.482       .  S
O61         Ni77   1.901       .  S
O61          C67   1.266       .  A
O62          C67   1.268       .  A
C63         C840   1.494       .  S
O64          C66   1.280       .  A
O65         Ni76   1.917       .  S
C66          O72   1.292       .  A
C66         C852   1.497       .  S
C67         C813   1.475       .  S
H68          O69   0.965       .  S
O69         Ni77   1.881       .  S
O69         Ni71   1.887       .  S
O69         Ni76   1.878       .  S
O70         Ni71   1.921       .  S
Ni71         O75   1.932       .  S
Ni71         O73   1.942       .  S
O72         Ni77   1.978       .  S
C74          O75   1.277       .  A
C74         C825   1.485       .  S
O79         Ni85   1.919       .  S
O79         C100   1.272       .  A
O80        Ni103   1.937       .  S
O80          C89   1.281       .  A
O81         Ni85   1.902       .  S
O81        Ni103   1.911       .  S
O81         Ni97   1.939       .  S
O81         H104   0.966       .  S
C82          O99   1.285       .  A
C82          O91   1.277       .  A
C82         C972   1.467       .  S
O83        Ni102   1.915       .  S
O83          C89   1.269       .  A
O84        Ni102   1.899   1_565  S
O84          C86   1.265       .  A
Ni85         O88   1.926       .  S
Ni85         O90   1.909       .  S
C86          O96   1.272   1_565  A
C86         C912   1.479       .  S
O87        Ni103   1.898       .  S
O87          C93   1.266       .  A
O88          C93   1.269       .  A
C89         C801   1.500       .  S
O90          C92   1.279       .  A
O91        Ni102   1.904       .  S
C92          O98   1.290       .  A
C92         C849   1.484       .  S
C93         C777   1.473       .  S
H94          O95   0.965       .  S
O95        Ni103   1.885       .  S
O95         Ni97   1.889       .  S
O95        Ni102   1.877       .  S
O96         Ni97   1.919       .  S
Ni97        O101   1.932       .  S
Ni97         O99   1.940       .  S
O98        Ni103   1.975       .  S
C100        O101   1.276       .  A
C100        C789   1.490       .  S
O105       Ni111   1.919       .  S
O105        C126   1.271   1_545  A
O106       Ni129   1.925       .  S
O106        C115   1.277       .  A
O107       Ni111   1.900   1_565  S
O107       Ni129   1.910       .  S
O107       Ni123   1.936       .  S
O107        H130   0.966   1_565  S
C108        O125   1.285       .  A
C108        O117   1.279       .  A
C108        C768   1.470       .  S
O109       Ni128   1.921       .  S
O109        C115   1.271       .  A
O110       Ni128   1.900       .  S
O110        C112   1.266       .  A
Ni111       O114   1.914       .  S
Ni111       O116   1.912   1_545  S
C112        O122   1.269       .  A
C112        C753   1.480       .  S
O113       Ni129   1.899   1_545  S
O113        C119   1.265       .  A
O114        C119   1.267       .  A
C115        C729   1.484   1_556  S
O116        C118   1.281       .  A
O117       Ni128   1.905       .  S
C118        O124   1.290       .  A
C118        C744   1.498       .  S
C119        C717   1.474       .  S
H120        O121   0.966       .  S
O121       Ni129   1.881       .  S
O121       Ni123   1.888       .  S
O121       Ni128   1.882       .  S
O122       Ni123   1.914       .  S
Ni123       O127   1.929       .  S
Ni123       O125   1.939       .  S
O124       Ni129   1.976       .  S
C126        O127   1.276       .  A
C126        C804   1.484   1_565  S
O131       Ni137   1.920       .  S
O131        C152   1.273       .  A
O132       Ni155   1.934       .  S
O132        C141   1.281       .  A
O133       Ni137   1.902       .  S
O133       Ni155   1.913       .  S
O133       Ni149   1.937       .  S
O133        H156   0.966       .  S
C134        O151   1.287       .  A
C134        O143   1.280       .  A
C134        C705   1.470       .  S
O135       Ni154   1.928       .  S
O135        C141   1.273       .  A
O136       Ni154   1.900       .  S
O136        C138   1.266       .  A
Ni137       O140   1.925       .  S
Ni137       O142   1.906       .  S
C138        O148   1.277       .  A
C138        C696   1.489       .  S
O139       Ni155   1.902       .  S
O139        C145   1.268       .  A
O140        C145   1.269       .  A
C141        C681   1.501   1_556  S
O142        C144   1.278       .  A
O143       Ni154   1.907       .  S
C144        O150   1.291       .  A
C144        C741   1.497       .  S
C145        C672   1.479       .  S
H146        O147   0.965       .  S
O147       Ni155   1.885       .  S
O147       Ni149   1.891       .  S
O147       Ni154   1.874       .  S
O148       Ni149   1.934       .  S
Ni149       O153   1.941       .  S
Ni149       O151   1.944       .  S
O150       Ni155   1.983       .  S
C152        O153   1.280       .  A
C152        C837   1.498       .  S
O157       Ni163   1.929       .  S
O157        C178   1.273       .  A
O158       Ni181   1.936       .  S
O158        C167   1.278       .  A
O159       Ni163   1.881       .  S
O159       Ni181   1.892       .  S
O159       Ni175   1.881       .  S
O159        H182   0.966       .  S
C160        O177   1.265       .  A
C160        O169   1.269       .  A
C160        C816   1.476       .  S
O161       Ni180   1.918       .  S
O161        C167   1.272       .  A
O162       Ni180   1.904       .  S
O162        C164   1.277       .  A
Ni163       O166   1.906       .  S
Ni163       O168   1.902   1_545  S
C164        O174   1.289       .  A
C164        C657   1.494       .  S
O165       Ni181   1.936       .  S
O165        C171   1.284       .  A
O166        C171   1.279       .  A
C167        C645   1.497       .  S
O168        C170   1.267       .  A
O169       Ni180   1.924       .  S
C170        O176   1.272   1_565  A
C170        C708   1.486       .  S
C171        C756   1.468   1_455  S
H172        O173   0.966       .  S
O173       Ni181   1.936       .  S
O173       Ni175   1.911       .  S
O173       Ni180   1.904       .  S
O174       Ni175   1.973       .  S
Ni175       O179   1.925       .  S
Ni175       O177   1.898       .  S
O176       Ni181   1.922       .  S
C178        O179   1.276       .  A
C178        C936   1.491       .  S
O183       Ni189   1.927       .  S
O183        C204   1.272       .  A
O184       Ni207   1.934       .  S
O184        C193   1.278       .  A
O185       Ni189   1.877       .  S
O185       Ni207   1.890       .  S
O185       Ni201   1.886       .  S
O185        H208   0.965       .  S
C186        O203   1.267       .  A
C186        O195   1.270       .  A
C186        C780   1.471       .  S
O187       Ni206   1.913       .  S
O187        C193   1.271       .  A
O188       Ni206   1.906       .  S
O188        C190   1.276       .  A
Ni189       O192   1.910       .  S
Ni189       O194   1.899       .  S
C190        O200   1.285       .  A
C190        C660   1.476       .  S
O191       Ni207   1.946       .  S
O191        C197   1.287       .  A
O192        C197   1.279       .  A
C193        C633   1.490       .  S
O194        C196   1.267       .  A
O195       Ni206   1.926       .  S
C196        O202   1.273       .  A
C196        C765   1.482       .  S
C197        C693   1.474   1_655  S
H198        O199   0.966       .  S
O199       Ni207   1.936       .  S
O199       Ni201   1.911       .  S
O199       Ni206   1.905       .  S
O200       Ni201   1.967       .  S
Ni201       O205   1.926       .  S
Ni201       O203   1.898       .  S
O202       Ni207   1.924       .  S
C204        O205   1.277       .  A
C204        C888   1.491       .  S
O209       Ni215   1.926       .  S
O209        C230   1.272       .  A
O210       Ni233   1.934       .  S
O210        C219   1.278       .  A
O211       Ni215   1.877       .  S
O211       Ni233   1.886       .  S
O211       Ni227   1.885       .  S
O211        H234   0.965       .  S
C212        O229   1.268       .  A
C212        O221   1.266       .  A
C212        C669   1.480       .  S
O213       Ni232   1.908       .  S
O213        C219   1.270       .  A
O214       Ni232   1.903       .  S
O214        C216   1.278       .  A
Ni215       O218   1.911       .  S
Ni215       O220   1.902       .  S
C216        O226   1.290       .  A
C216        C597   1.495       .  S
O217       Ni233   1.949       .  S
O217        C223   1.289       .  A
O218        C223   1.280       .  A
C219        C585   1.490       .  S
O220        C222   1.267       .  A
O221       Ni232   1.918       .  S
C222        O228   1.273       .  A
C222        C609   1.491       .  S
C223        C621   1.479       .  S
H224        O225   0.966       .  S
O225       Ni233   1.942       .  S
O225       Ni227   1.908       .  S
O225       Ni232   1.902       .  S
O226       Ni227   1.976       .  S
Ni227       O231   1.922       .  S
Ni227       O229   1.908       .  S
O228       Ni233   1.931       .  S
C230        O231   1.278       .  A
C230        C636   1.485   1_554  S
O235       Ni241   1.915       .  S
O235        C256   1.271       .  A
O236       Ni259   1.924       .  S
O236        C245   1.276       .  A
O237       Ni241   1.901       .  S
O237       Ni259   1.911       .  S
O237       Ni253   1.937       .  S
O237        H260   0.967       .  S
C238        O255   1.286       .  A
C238        O247   1.279       .  A
C238        C612   1.472   1_455  S
O239       Ni258   1.929       .  S
O239        C245   1.271       .  A
O240       Ni258   1.897       .  S
O240        C242   1.265       .  A
Ni241       O244   1.915       .  S
Ni241       O246   1.906       .  S
C242        O252   1.273       .  A
C242        C573   1.480       .  S
O243       Ni259   1.901       .  S
O243        C249   1.266       .  A
O244        C249   1.267       .  A
C245        C549   1.485       .  S
O246        C248   1.279       .  A
O247       Ni258   1.912       .  S
C248        O254   1.288       .  A
C248        C564   1.491       .  S
C249        C540   1.472       .  S
H250        O251   0.961       .  S
O251       Ni259   1.886       .  S
O251       Ni253   1.894       .  S
O251       Ni258   1.882       .  S
O252       Ni253   1.921       .  S
Ni253       O257   1.941       .  S
Ni253       O255   1.942       .  S
O254       Ni259   1.971       .  S
C256        O257   1.279       .  A
C256        C684   1.492       .  S
O261       Ni267   1.930       .  S
O261        C282   1.274       .  A
O262       Ni285   1.931       .  S
O262        C271   1.276       .  A
O263       Ni267   1.876       .  S
O263       Ni285   1.888       .  S
O263       Ni279   1.881       .  S
O263        H286   0.965       .  S
C264        O281   1.267       .  A
C264        O273   1.268       .  A
C264        C720   1.474       .  S
O265       Ni284   1.913       .  S
O265        C271   1.270       .  A
O266       Ni284   1.909       .  S
O266        C268   1.278       .  A
Ni267       O270   1.909       .  S
Ni267       O272   1.902       .  S
C268        O278   1.286       .  A
C268        C600   1.481       .  S
O269       Ni285   1.933       .  S
O269        C275   1.284       .  A
O270        C275   1.280       .  A
C271        C513   1.491       .  S
O272        C274   1.267       .  A
O273       Ni284   1.915       .  S
C274        O280   1.274       .  A
C274        C525   1.482       .  S
C275        C576   1.465       .  S
H276        O277   0.966       .  S
O277       Ni285   1.933       .  S
O277       Ni279   1.913       .  S
O277       Ni284   1.905       .  S
O278       Ni279   1.971       .  S
Ni279       O283   1.929       .  S
Ni279       O281   1.899       .  S
O280       Ni285   1.925       .  S
C282        O283   1.279       .  A
C282        C648   1.492   1_554  S
O287       Ni293   1.913       .  S
O287        C308   1.271       .  A
O288       Ni311   1.925       .  S
O288        C297   1.277   1_565  A
O289       Ni293   1.902       .  S
O289       Ni311   1.907       .  S
O289       Ni305   1.940       .  S
O289        H312   0.966       .  S
C290        O307   1.289       .  A
C290        O299   1.278       .  A
C290        C528   1.478   1_655  S
O291       Ni310   1.913       .  S
O291        C297   1.268       .  A
O292       Ni310   1.897       .  S
O292        C294   1.264       .  A
Ni293       O296   1.918       .  S
Ni293       O298   1.904       .  S
C294        O304   1.273       .  A
C294        C624   1.488       .  S
O295       Ni311   1.899       .  S
O295        C301   1.265       .  A
O296        C301   1.268       .  A
C297        C504   1.484       .  S
O298        C300   1.279       .  A
O299       Ni310   1.899       .  S
C300        O306   1.290       .  A
C300        C561   1.495       .  S
C301        C489   1.474       .  S
H302        O303   0.966       .  S
O303       Ni311   1.883       .  S
O303       Ni305   1.885       .  S
O303       Ni310   1.876   1_565  S
O304       Ni305   1.931   1_545  S
Ni305       O309   1.924       .  S
Ni305       O307   1.951   1_565  S
O306       Ni311   1.979       .  S
C308        O309   1.276       .  A
C308        C732   1.487       .  S
O313       Ni319   1.912       .  S
O313        C334   1.271       .  A
O314       Ni337   1.917       .  S
O314        C323   1.276       .  A
O315       Ni319   1.905       .  S
O315       Ni337   1.907       .  S
O315       Ni331   1.937       .  S
O315        H338   0.966       .  S
C316        O333   1.287       .  A
C316        O325   1.280       .  A
C316        C468   1.473       .  S
O317       Ni336   1.929       .  S
O317        C323   1.274       .  A
O318       Ni336   1.902       .  S
O318        C320   1.266       .  A
Ni319       O322   1.923       .  S
Ni319       O324   1.909       .  S
C320        O330   1.277       .  A
C320        C477   1.497       .  S
O321       Ni337   1.901       .  S
O321        C327   1.266       .  A
O322        C327   1.269       .  A
C323        C792   1.489       .  S
O324        C326   1.278       .  A
O325       Ni336   1.907       .  S
C326        O332   1.288       .  A
C326        C453   1.492       .  S
C327        C924   1.478       .  S
H328        O329   0.965       .  S
O329       Ni337   1.882       .  S
O329       Ni331   1.883       .  S
O329       Ni336   1.873       .  S
O330       Ni331   1.941       .  S
Ni331       O335   1.924       .  S
Ni331       O333   1.942       .  S
O332       Ni337   1.979       .  S
C334        O335   1.276       .  A
C334        C501   1.481       .  S
O339       Ni345   1.909       .  S
O339        C360   1.270       .  A
O340       Ni363   1.932       .  S
O340        C349   1.280       .  A
O341       Ni345   1.899       .  S
O341       Ni363   1.912       .  S
O341       Ni357   1.929       .  S
O341        H364   0.966       .  S
C342        O359   1.284       .  A
C342        O351   1.278       .  A
C342        C441   1.464       .  S
O343       Ni362   1.919       .  S
O343        C349   1.271       .  A
O344       Ni362   1.898       .  S
O344        C346   1.265       .  A
Ni345       O348   1.906       .  S
Ni345       O350   1.904       .  S
C346        O356   1.273       .  A
C346        C432   1.481       .  S
O347       Ni363   1.894       .  S
O347        C353   1.265       .  A
O348        C353   1.266       .  A
C349        C828   1.496       .  S
O350        C352   1.277       .  A
O351       Ni362   1.902       .  S
C352        O358   1.291       .  A
C352        C456   1.500       .  S
C353        C864   1.467       .  S
H354        O355   0.965       .  S
O355       Ni363   1.880       .  S
O355       Ni357   1.888       .  S
O355       Ni362   1.873       .  S
O356       Ni357   1.923       .  S
Ni357       O361   1.933       .  S
Ni357       O359   1.935       .  S
O358       Ni363   1.983       .  S
C360        O361   1.277       .  A
C360        C552   1.490       .  S
O365       Ni371   1.926       .  S
O365        C386   1.272       .  A
O366       Ni389   1.938       .  S
O366        C375   1.279       .  A
O367       Ni371   1.881       .  S
O367       Ni389   1.894       .  S
O367       Ni383   1.879       .  S
O367        H390   0.966       .  S
C368        O385   1.264       .  A
C368        O377   1.268       .  A
C368        C492   1.471       .  S
O369       Ni388   1.914       .  S
O369        C375   1.271       .  A
O370       Ni388   1.906       .  S
O370        C372   1.279       .  A
Ni371       O374   1.909       .  S
Ni371       O376   1.898       .  S
C372        O382   1.288       .  A
C372        C417   1.485       .  S
O373       Ni389   1.932       .  S
O373        C379   1.283       .  A
O374        C379   1.279       .  A
C375        C873   1.494       .  S
O376        C378   1.266       .  A
O377       Ni388   1.921       .  S
C378        O384   1.272       .  A
C378        C465   1.480       .  S
C379        C429   1.464       .  S
H380        O381   0.966       .  S
O381       Ni389   1.932       .  S
O381       Ni383   1.907       .  S
O381       Ni388   1.903       .  S
O382       Ni383   1.969       .  S
Ni383       O387   1.926       .  S
Ni383       O385   1.892       .  S
O384       Ni389   1.919       .  S
C386        O387   1.276       .  A
C386        C588   1.489       .  S
O391       Ni397   1.921       .  S
O391        C412   1.271       .  A
O392       Ni415   1.933       .  S
O392        C401   1.278       .  A
O393       Ni397   1.874   1_565  S
O393       Ni415   1.884       .  S
O393       Ni409   1.885       .  S
O393        H416   0.965       .  S
C394        O411   1.267       .  A
C394        O403   1.266       .  A
C394        C537   1.472       .  S
O395       Ni414   1.906       .  S
O395        C401   1.269       .  A
O396       Ni414   1.900       .  S
O396        C398   1.277       .  A
Ni397       O400   1.910       .  S
Ni397       O402   1.897       .  S
C398        O408   1.290       .  A
C398        C420   1.487       .  S
O399       Ni415   1.953   1_545  S
O399        C405   1.290       .  A
O400        C405   1.279       .  A
C401        C948   1.484       .  S
O402        C404   1.265       .  A
O403       Ni414   1.916       .  S
C404        O410   1.272       .  A
C404        C444   1.481       .  S
C405        C480   1.476       .  S
H406        O407   0.966       .  S
O407       Ni415   1.942       .  S
O407       Ni409   1.906       .  S
O407       Ni414   1.901       .  S
O408       Ni409   1.971       .  S
Ni409       O413   1.928       .  S
Ni409       O411   1.902       .  S
O410       Ni415   1.922   1_545  S
C412        O413   1.279   1_545  A
C412        C516   1.484       .  S
C417        C418   1.404       .  A
C417        C422   1.412       .  A
C418        C419   1.397       .  A
C418        H423   1.084       .  S
C419        C420   1.414       .  A
C419        O424   1.372       .  S
C420        C421   1.406       .  A
C421        C422   1.403       .  A
C421        H425   1.083       .  S
C422        O426   1.371       .  S
O424        H428   0.992       .  S
O426        H427   0.992       .  S
C429        C430   1.397       .  A
C429        C434   1.407       .  A
C430        C431   1.401       .  A
C430        H435   1.084       .  S
C431        C432   1.418       .  A
C431        O436   1.372       .  S
C432        C433   1.403       .  A
C433        C434   1.393       .  A
C433        H437   1.084       .  S
C434        O438   1.372       .  S
O436        H440   0.992       .  S
O438        H439   0.992       .  S
C441        C442   1.397       .  A
C441        C446   1.408       .  A
C442        C443   1.400       .  A
C442        H447   1.084       .  S
C443        C444   1.418       .  A
C443        O448   1.372       .  S
C444        C445   1.403       .  A
C445        C446   1.392       .  A
C445        H449   1.083       .  S
C446        O450   1.372       .  S
O448        H452   0.992       .  S
O450        H451   0.992       .  S
C453        C454   1.403       .  A
C453        C458   1.413       .  A
C454        C455   1.399   1_655  A
C454        H459   1.084       .  S
C455        C456   1.417       .  A
C455        O460   1.372       .  S
C456        C457   1.410       .  A
C457        C458   1.411   1_455  A
C457        H461   1.083       .  S
C458        O462   1.372       .  S
O460        H464   0.992       .  S
O462        H463   0.992   1_655  S
C465        C466   1.403       .  A
C465        C470   1.416       .  A
C466        C467   1.393       .  A
C466        H471   1.084       .  S
C467        C468   1.410       .  A
C467        O472   1.372       .  S
C468        C469   1.400       .  A
C469        C470   1.402       .  A
C469        H473   1.084       .  S
C470        O474   1.372       .  S
O472        H476   0.992       .  S
O474        H475   0.992       .  S
C477        C478   1.406       .  A
C477        C482   1.422       .  A
C478        C479   1.401       .  A
C478        H483   1.083       .  S
C479        C480   1.410       .  A
C479        O484   1.372       .  S
C480        C481   1.397       .  A
C481        C482   1.404       .  A
C481        H485   1.084       .  S
C482        O486   1.372       .  S
O484        H488   0.992   1_545  S
O486        H487   0.992       .  S
C489        C490   1.408       .  A
C489        C494   1.407       .  A
C490        C491   1.392       .  A
C490        H495   1.083       .  S
C491        C492   1.406       .  A
C491        O496   1.372       .  S
C492        C493   1.408       .  A
C493        C494   1.394       .  A
C493        H497   1.083       .  S
C494        O498   1.372       .  S
O496        H500   0.992       .  S
O498        H499   0.992       .  S
C501        C502   1.398       .  A
C501        C506   1.416       .  A
C502        C503   1.401       .  A
C502        H507   1.084       .  S
C503        C504   1.419       .  A
C503        O508   1.372       .  S
C504        C505   1.399       .  A
C505        C506   1.401       .  A
C505        H509   1.084   1_545  S
C506        O510   1.372   1_545  S
O508        H512   0.992       .  S
O510        H511   0.992       .  S
C513        C514   1.413       .  A
C513        C518   1.407       .  A
C514        C515   1.402       .  A
C514        H519   1.083       .  S
C515        C516   1.403       .  A
C515        O520   1.372   1_545  S
C516        C517   1.411       .  A
C517        C518   1.405       .  A
C517        H521   1.084       .  S
C518        O522   1.371       .  S
O520        H524   0.992       .  S
O522        H523   0.992       .  S
C525        C526   1.411       .  A
C525        C530   1.408       .  A
C526        C527   1.405       .  A
C526        H531   1.083       .  S
C527        C528   1.405       .  A
C527        O532   1.371   1_455  S
C528        C529   1.407       .  A
C529        C530   1.393       .  A
C529        H533   1.084       .  S
C530        O534   1.372       .  S
O532        H536   0.991       .  S
O534        H535   0.992       .  S
C537        C538   1.400       .  A
C537        C542   1.415       .  A
C538        C539   1.392       .  A
C538        H543   1.084       .  S
C539        C540   1.413       .  A
C539        O544   1.372       .  S
C540        C541   1.401       .  A
C541        C542   1.394       .  A
C541        H545   1.084       .  S
C542        O546   1.372       .  S
O544        H548   0.992       .  S
O546        H547   0.992       .  S
C549        C550   1.411       .  A
C549        C554   1.403       .  A
C550        C551   1.407       .  A
C550        H555   1.084       .  S
C551        C552   1.407       .  A
C551        O556   1.371       .  S
C552        C553   1.412       .  A
C553        C554   1.401       .  A
C553        H557   1.084       .  S
C554        O558   1.372       .  S
O556        H560   0.992       .  S
O558        H559   0.992       .  S
C561        C562   1.406       .  A
C561        C566   1.415       .  A
C562        C563   1.396   1_655  A
C562        H567   1.083       .  S
C563        C564   1.411       .  A
C563        O568   1.372       .  S
C564        C565   1.409       .  A
C565        C566   1.410   1_455  A
C565        H569   1.083       .  S
C566        O570   1.371       .  S
O568        H572   0.992       .  S
O570        H571   0.992       .  S
C573        C574   1.403       .  A
C573        C578   1.418       .  A
C574        C575   1.391       .  A
C574        H579   1.084       .  S
C575        C576   1.408       .  A
C575        O580   1.372       .  S
C576        C577   1.398       .  A
C577        C578   1.401       .  A
C577        H581   1.084       .  S
C578        O582   1.372       .  S
O580        H584   0.992       .  S
O582        H583   0.992       .  S
C585        C586   1.413       .  A
C585        C590   1.405       .  A
C586        C587   1.403       .  A
C586        H591   1.084       .  S
C587        C588   1.405       .  A
C587        O592   1.372       .  S
C588        C589   1.412       .  A
C589        C590   1.405       .  A
C589        H593   1.083       .  S
C590        O594   1.371       .  S
O592        H596   0.992       .  S
O594        H595   0.992       .  S
C597        C598   1.409       .  A
C597        C602   1.415       .  A
C598        C599   1.396       .  A
C598        H603   1.083       .  S
C599        C600   1.406       .  A
C599        O604   1.372       .  S
C600        C601   1.406       .  A
C601        C602   1.408       .  A
C601        H605   1.084       .  S
C602        O606   1.371       .  S
O604        H608   0.992       .  S
O606        H607   0.992       .  S
C609        C610   1.413       .  A
C609        C614   1.412       .  A
C610        C611   1.401       .  A
C610        H615   1.083       .  S
C611        C612   1.402       .  A
C611        O616   1.372   1_655  S
C612        C613   1.403       .  A
C613        C614   1.399       .  A
C613        H617   1.084       .  S
C614        O618   1.372       .  S
O616        H620   0.992       .  S
O618        H619   0.992       .  S
C621        C622   1.399       .  A
C621        C626   1.413       .  A
C622        C623   1.403       .  A
C622        H627   1.084       .  S
C623        C624   1.418       .  A
C623        O628   1.372       .  S
C624        C625   1.403       .  A
C625        C626   1.399       .  A
C625        H629   1.084       .  S
C626        O630   1.373       .  S
O628        H632   0.992       .  S
O630        H631   0.992       .  S
C633        C634   1.402       .  A
C633        C638   1.419       .  A
C634        C635   1.406       .  A
C634        H639   1.083       .  S
C635        C636   1.417       .  A
C635        O640   1.372       .  S
C636        C637   1.398       .  A
C637        C638   1.400       .  A
C637        H641   1.084       .  S
C638        O642   1.372       .  S
O640        H644   0.992       .  S
O642        H643   0.992       .  S
C645        C646   1.412       .  A
C645        C650   1.409       .  A
C646        C647   1.404       .  A
C646        H651   1.083       .  S
C647        C648   1.406       .  A
C647        O652   1.372       .  S
C648        C649   1.412       .  A
C649        C650   1.409       .  A
C649        H653   1.083       .  S
C650        O654   1.371       .  S
O652        H656   0.992       .  S
O654        H655   0.992       .  S
C657        C658   1.409       .  A
C657        C662   1.417       .  A
C658        C659   1.405   1_455  A
C658        H663   1.083       .  S
C659        C660   1.407       .  A
C659        O664   1.372       .  S
C660        C661   1.400       .  A
C661        C662   1.398   1_655  A
C661        H665   1.084       .  S
C662        O666   1.372       .  S
O664        H668   0.992       .  S
O666        H667   0.992       .  S
C669        C670   1.402   1_554  A
C669        C674   1.416       .  A
C670        C671   1.397       .  A
C670        H675   1.084       .  S
C671        C672   1.415       .  A
C671        O676   1.372       .  S
C672        C673   1.401   1_556  A
C673        C674   1.395       .  A
C673        H677   1.084       .  S
C674        O678   1.372       .  S
O676        H680   0.992       .  S
O678        H679   0.992       .  S
C681        C682   1.416       .  A
C681        C686   1.409       .  A
C682        C683   1.408       .  A
C682        H687   1.083       .  S
C683        C684   1.405       .  A
C683        O688   1.371       .  S
C684        C685   1.411       .  A
C685        C686   1.407       .  A
C685        H689   1.084       .  S
C686        O690   1.371       .  S
O688        H692   0.992       .  S
O690        H691   0.992       .  S
C693        C694   1.398       .  A
C693        C698   1.409       .  A
C694        C695   1.403       .  A
C694        H699   1.084   1_455  S
C695        C696   1.420       .  A
C695        O700   1.372       .  S
C696        C697   1.403       .  A
C697        C698   1.397       .  A
C697        H701   1.083       .  S
C698        O702   1.372       .  S
O700        H704   0.992       .  S
O702        H703   0.992       .  S
C705        C706   1.402       .  A
C705        C710   1.403       .  A
C706        C707   1.394       .  A
C706        H711   1.084       .  S
C707        C708   1.412       .  A
C707        O712   1.372       .  S
C708        C709   1.413       .  A
C709        C710   1.402       .  A
C709        H713   1.083       .  S
C710        O714   1.371       .  S
O712        H716   0.992       .  S
O714        H715   0.992       .  S
C717        C718   1.409       .  A
C717        C722   1.406   1_556  A
C718        C719   1.392       .  A
C718        H723   1.083       .  S
C719        C720   1.405   1_556  A
C719        O724   1.372       .  S
C720        C721   1.410       .  A
C721        C722   1.394       .  A
C721        H725   1.083       .  S
C722        O726   1.372       .  S
O724        H728   0.992       .  S
O726        H727   0.992       .  S
C729        C730   1.411       .  A
C729        C734   1.404       .  A
C730        C731   1.403       .  A
C730        H735   1.084       .  S
C731        C732   1.406       .  A
C731        O736   1.372       .  S
C732        C733   1.412       .  A
C733        C734   1.401       .  A
C733        H737   1.084       .  S
C734        O738   1.371       .  S
O736        H740   0.992       .  S
O738        H739   0.992       .  S
C741        C742   1.406       .  A
C741        C746   1.414       .  A
C742        C743   1.399       .  A
C742        H747   1.083       .  S
C743        C744   1.412       .  A
C743        O748   1.372       .  S
C744        C745   1.411       .  A
C745        C746   1.412       .  A
C745        H749   1.083       .  S
C746        O750   1.371       .  S
O748        H752   0.992       .  S
O750        H751   0.992       .  S
C753        C754   1.411       .  A
C753        C758   1.411   1_565  A
C754        C755   1.401       .  A
C754        H759   1.083       .  S
C755        C756   1.404   1_565  A
C755        O760   1.371   1_655  S
C756        C757   1.402       .  A
C757        C758   1.391       .  A
C757        H761   1.084       .  S
C758        O762   1.372       .  S
O760        H764   0.992   1_565  S
O762        H763   0.992       .  S
C765        C766   1.412       .  A
C765        C770   1.410       .  A
C766        C767   1.402       .  A
C766        H771   1.083       .  S
C767        C768   1.403       .  A
C767        O772   1.371       .  S
C768        C769   1.404       .  A
C769        C770   1.393       .  A
C769        H773   1.084       .  S
C770        O774   1.372       .  S
O772        H776   0.992       .  S
O774        H775   0.992       .  S
C777        C778   1.403       .  A
C777        C782   1.411       .  A
C778        C779   1.395       .  A
C778        H783   1.084       .  S
C779        C780   1.411       .  A
C779        O784   1.372       .  S
C780        C781   1.402       .  A
C781        C782   1.395       .  A
C781        H785   1.084       .  S
C782        O786   1.372       .  S
O784        H788   0.992       .  S
O786        H787   0.992       .  S
C789        C790   1.410       .  A
C789        C794   1.407       .  A
C790        C791   1.402       .  A
C790        H795   1.084       .  S
C791        C792   1.407       .  A
C791        O796   1.372       .  S
C792        C793   1.412       .  A
C793        C794   1.407       .  A
C793        H797   1.084       .  S
C794        O798   1.371       .  S
O796        H800   0.992       .  S
O798        H799   0.992       .  S
C801        C802   1.405       .  A
C801        C806   1.424   1_545  A
C802        C803   1.407       .  A
C802        H807   1.083       .  S
C803        C804   1.414       .  A
C803        O808   1.372       .  S
C804        C805   1.396   1_545  A
C805        C806   1.403       .  A
C805        H809   1.084       .  S
C806        O810   1.372       .  S
O808        H812   0.992       .  S
O810        H811   0.992       .  S
C813        C814   1.407       .  A
C813        C818   1.408       .  A
C814        C815   1.396       .  A
C814        H819   1.084       .  S
C815        C816   1.409       .  A
C815        O820   1.372       .  S
C816        C817   1.406       .  A
C817        C818   1.395       .  A
C817        H821   1.083       .  S
C818        O822   1.372       .  S
O820        H824   0.992       .  S
O822        H823   0.992       .  S
C825        C826   1.397       .  A
C825        C830   1.415       .  A
C826        C827   1.404       .  A
C826        H831   1.084       .  S
C827        C828   1.422       .  A
C827        O832   1.372       .  S
C828        C829   1.403       .  A
C829        C830   1.406       .  A
C829        H833   1.083       .  S
C830        O834   1.372       .  S
O832        H836   0.992       .  S
O834        H835   0.992       .  S
C837        C838   1.413       .  A
C837        C842   1.408       .  A
C838        C839   1.404       .  A
C838        H843   1.084       .  S
C839        C840   1.405       .  A
C839        O844   1.371       .  S
C840        C841   1.413       .  A
C841        C842   1.411       .  A
C841        H845   1.083       .  S
C842        O846   1.371       .  S
O844        H848   0.992       .  S
O846        H847   0.992       .  S
C849        C850   1.404       .  A
C849        C854   1.409       .  A
C850        C851   1.406       .  A
C850        H855   1.084       .  S
C851        C852   1.415       .  A
C851        O856   1.371       .  S
C852        C853   1.411       .  A
C853        C854   1.401       .  A
C853        H857   1.083       .  S
C854        O858   1.373       .  S
O856        H860   0.992       .  S
O858        H859   0.992       .  S
C861        C862   1.409   1_655  A
C861        C866   1.405       .  A
C862        C863   1.389       .  A
C862        H867   1.083       .  S
C863        C864   1.405       .  A
C863        O868   1.372       .  S
C864        C865   1.409   1_455  A
C865        C866   1.389       .  A
C865        H869   1.083       .  S
C866        O870   1.372       .  S
O868        H872   0.992       .  S
O870        H871   0.992       .  S
C873        C874   1.413       .  A
C873        C878   1.406       .  A
C874        C875   1.406       .  A
C874        H879   1.084       .  S
C875        C876   1.406       .  A
C875        O880   1.371       .  S
C876        C877   1.413       .  A
C877        C878   1.407       .  A
C877        H881   1.083       .  S
C878        O882   1.371       .  S
O880        H884   0.992       .  S
O882        H883   0.992       .  S
C885        C886   1.411       .  A
C885        C890   1.405       .  A
C886        C887   1.405       .  A
C886        H891   1.084       .  S
C887        C888   1.408       .  A
C887        O892   1.372       .  S
C888        C889   1.412       .  A
C889        C890   1.404       .  A
C889        H893   1.083       .  S
C890        O894   1.371       .  S
O892        H896   0.992       .  S
O894        H895   0.992       .  S
C897        C898   1.413       .  A
C897        C902   1.412       .  A
C898        C899   1.402       .  A
C898        H903   1.083       .  S
C899        C900   1.403       .  A
C899        O904   1.371       .  S
C900        C901   1.404       .  A
C901        C902   1.398       .  A
C901        H905   1.084       .  S
C902        O906   1.372       .  S
O904        H908   0.992       .  S
O906        H907   0.992       .  S
C909        C910   1.400       .  A
C909        C914   1.409       .  A
C910        C911   1.401       .  A
C910        H915   1.084       .  S
C911        C912   1.417       .  A
C911        O916   1.372       .  S
C912        C913   1.401       .  A
C913        C914   1.392       .  A
C913        H917   1.084       .  S
C914        O918   1.373       .  S
O916        H920   0.992       .  S
O918        H919   0.992       .  S
C921        C922   1.409   1_455  A
C921        C926   1.407       .  A
C922        C923   1.397       .  A
C922        H927   1.083       .  S
C923        C924   1.407       .  A
C923        O928   1.372       .  S
C924        C925   1.408   1_655  A
C925        C926   1.395       .  A
C925        H929   1.083       .  S
C926        O930   1.372       .  S
O928        H932   0.992       .  S
O930        H931   0.992       .  S
C933        C934   1.412       .  A
C933        C938   1.406   1_545  A
C934        C935   1.405       .  A
C934        H939   1.084       .  S
C935        C936   1.406       .  A
C935        O940   1.372       .  S
C936        C937   1.412   1_545  A
C937        C938   1.407       .  A
C937        H941   1.083       .  S
C938        O942   1.371       .  S
O940        H944   0.992       .  S
O942        H943   0.992       .  S
C945        C946   1.400       .  A
C945        C950   1.420       .  A
C946        C947   1.402       .  A
C946        H951   1.084       .  S
C947        C948   1.416       .  A
C947        O952   1.373       .  S
C948        C949   1.398       .  A
C949        C950   1.404       .  A
C949        H953   1.084       .  S
C950        O954   1.372       .  S
O952        H956   0.992       .  S
O954        H955   0.992       .  S
C957        C958   1.405       .  A
C957        C962   1.410       .  A
C958        C959   1.408   1_455  A
C958        H963   1.084       .  S
C959        C960   1.416       .  A
C959        O964   1.371       .  S
C960        C961   1.410   1_655  A
C961        C962   1.403       .  A
C961        H965   1.083   1_455  S
C962        O966   1.372       .  S
O964        H968   0.992       .  S
O966        H967   0.992       .  S
C969        C970   1.414       .  A
C969        C974   1.410   1_565  A
C970        C971   1.400       .  A
C970        H975   1.083       .  S
C971        C972   1.401   1_565  A
C971        O976   1.372       .  S
C972        C973   1.403       .  A
C973        C974   1.396       .  A
C973        H977   1.084       .  S
C974        O978   1.372       .  S
O976        H980   0.991       .  S
O978        H979   0.992   1_545  S
C981        C982   1.405       .  A
C981        C986   1.404       .  A
C982        C983   1.393       .  A
C982        H987   1.084       .  S
C983        C984   1.410       .  A
C983        O988   1.372       .  S
C984        C985   1.411       .  A
C985        C986   1.402       .  A
C985        H989   1.083       .  S
C986        O990   1.371       .  S
O988        H992   0.992       .  S
O990        H991   0.992       .  S
