geometry optimzed in LAMMPS
_audit_creation_date              2020-12-01 
_audit_creation_method            'lammps2cif' 
_symmetry_space_group_name_H-M    'P1' 
_symmetry_Int_Tables_number       1 
_symmetry_cell_setting            triclinic 
loop_ 
_symmetry_equiv_pos_as_xyz 
  x,y,z 
_cell_length_a                    44.12142624 
_cell_length_b                    44.16450988805418 
_cell_length_c                    28.648602754360525 
_cell_angle_alpha                 89.88426475436313 
_cell_angle_beta                  89.84795074577961 
_cell_angle_gamma                 90.07434371872998 
loop_ 
_atom_site_label 
_atom_site_type_symbol 
_atom_site_fract_x 
_atom_site_fract_y 
_atom_site_fract_z 
_atom_site_charge 
Zr1        Zr  0.59713459  0.04621392  0.65227832     2.17500
O2          O  0.62630482  0.01044841  0.60533881    -0.51900
O3          O  0.55966454  0.02200242  0.59943625    -0.75100
O4          O  0.60976302  0.99970071  0.69576098    -0.81900
O5          O  0.62483523  0.11458951  0.58016524    -0.83600
O6          O  0.59353493  0.00416779  0.77098340    -0.79300
O7          O  0.63602713  0.06565072  0.59750904    -0.90900
O8          O  0.51288252  0.04113040  0.61367384    -0.76900
O9          O  0.55341444  0.04129204  0.70085963    -0.86400
O10         O  0.56168184  0.08263715  0.62358314    -0.86100
O11         O  0.61365689  0.05773679  0.73113195    -0.72800
O12         O  0.62007001  0.09507010  0.66267416    -0.84900
Zr13       Zr  0.55642643  0.13759508  0.75815759     2.26400
Zr14       Zr  0.56890143  0.05324550  0.77893355     2.06300
Zr15       Zr  0.58496479  0.13125882  0.63292840     2.10000
Zr16       Zr  0.51820885  0.07795690  0.67305962     1.78800
O17         O  0.61754823  0.17456274  0.61656354    -0.93700
O18         O  0.48440769  0.03875558  0.70339721    -0.41600
O19         O  0.54064781  0.12667439  0.68027710    -0.78200
O20         O  0.53220975  0.08899112  0.75115310    -0.96900
O21         O  0.59193522  0.10214881  0.78837865    -0.90200
O22         O  0.60043736  0.14337630  0.71082760    -0.93000
C23         C  0.53087541  0.02374884  0.59168154     1.00700
C24         C  0.64097570  0.09063885  0.57517322     1.13700
C25         C  0.60678302  0.98972600  0.73779554     1.04400
O26         O  0.52981102  0.01509157  0.79122621    -0.95200
O27         O  0.53757721  0.07201392  0.84343069    -0.90900
O28         O  0.53044594  0.12221014  0.82932216    -0.84100
C29         C  0.52597067  0.09799290  0.85320418     1.11100
O30         O  0.68422169  0.08274155  0.72557770    -0.97200
Zr31       Zr  0.63563731  0.10723872  0.74024590     1.88900
O32         O  0.59274935  0.16934906  0.79879356    -0.73800
O33         O  0.59557975  0.04374898  0.85190523    -0.53100
O34         O  0.65902137  0.08647529  0.81031136    -0.97700
O35         O  0.67164744  0.13940822  0.69850689    -0.55000
O36         O  0.64030916  0.15075258  0.79190259    -0.74300
C37         C  0.62125828  0.17037972  0.80698255     0.98000
O38         O  0.52554145  0.17800066  0.79167378    -0.63100
O39         O  0.56109086  0.13482252  0.55639770    -0.57900
O40         O  0.53348066  0.17667422  0.71023955    -0.94600
O41         O  0.55574758  0.17798694  0.63856815    -0.93000
O42         O  0.49103022  0.10236362  0.60947619    -0.93400
O43         O  0.47002940  0.09966552  0.69758551    -0.92200
C44         C  0.53756967  0.18839203  0.66970554     1.16900
H45         H  0.55690688  0.07955023  0.59108181     0.32800
H46         H  0.51338701  0.08781983  0.76817883     0.43700
H47         H  0.60834554  0.16375231  0.71179141     0.37200
H48         H  0.62931803  0.04399279  0.74116775     0.33700
H49         H  0.49682432  0.02011584  0.70469433     0.25500
H50         H  0.58467995  0.02649683  0.86638175     0.31400
H51         H  0.64691448  0.09463702  0.83655750     0.37300
H52         H  0.49597757  0.12414899  0.61243684     0.31800
H53         H  0.54745016  0.15255547  0.55819305     0.30600
H54         H  0.61831336  0.17594874  0.58208641     0.32300
H55         H  0.67312216  0.15822294  0.71707778     0.31300
H56         H  0.47564054  0.11846561  0.71425867     0.35300
H57         H  0.50481533  0.16957891  0.79483749     0.28000
H58         H  0.61412861  0.99161142  0.60465452     0.32300
H59         H  0.69944377  0.09501520  0.74247927     0.35100
H60         H  0.57749149  0.14131826  0.53497814     0.27700
H61         H  0.53279837  0.18071407  0.82407548     0.40600
H62         H  0.53646693  0.00371725  0.81917594     0.30600
H63         H  0.48093849  0.04414039  0.73650834     0.38300
H64         H  0.66094618  0.14555230  0.66969057     0.30100
H65         H  0.61548820  0.03535562  0.84257618     0.30200
H66         H  0.64441036  0.00530543  0.62410594     0.30400
Zr67       Zr  0.40382165  0.93437682  0.38367145     2.17500
O68         O  0.37184087  0.97322381  0.41872205    -0.51900
O69         O  0.43957737  0.95747231  0.44004712    -0.75100
O70         O  0.37094986  0.91314964  0.44608491    -0.81900
O71         O  0.40263374  0.97803732  0.26652554    -0.83600
O72         O  0.38475340  0.86437061  0.45942387    -0.79300
O73         O  0.38760021  0.98065439  0.34252279    -0.90900
O74         O  0.48739018  0.94079070  0.42649224    -0.76900
O75         O  0.44226495  0.90066410  0.40980128    -0.86400
O76         O  0.44717739  0.94388130  0.33545168    -0.86100
O77         O  0.38312956  0.88434002  0.36989580    -0.72800
O78         O  0.38890967  0.92447170  0.30374336    -0.84900
Zr79       Zr  0.45061297  0.84881935  0.27436559     2.26400
Zr80       Zr  0.42171884  0.85089140  0.39903459     2.06300
Zr81       Zr  0.43297547  0.93287242  0.25660597     2.10000
Zr82       Zr  0.48516966  0.90942961  0.36023403     1.78800
O83         O  0.40857955  0.94287634  0.18201405    -0.93700
O84         O  0.51623421  0.88251508  0.41701651    -0.41600
O85         O  0.47136521  0.89875091  0.28199952    -0.78200
O86         O  0.46634192  0.85973193  0.35266844    -0.96900
O87         O  0.40674563  0.83976372  0.32043369    -0.90200
O88         O  0.41330274  0.88277659  0.24448980    -0.93000
C89         C  0.46818956  0.95622614  0.44933994     1.00700
C90         C  0.38913799  0.99119698  0.30060898     1.13700
C91         C  0.36760870  0.88743802  0.46715926     1.04400
O92         O  0.44902605  0.84711348  0.47253877    -0.95200
O93         O  0.45213912  0.80483959  0.39102114    -0.90900
O94         O  0.47127658  0.80599924  0.31714988    -0.84100
C95         C  0.46907452  0.79443334  0.35812850     1.11100
O96         O  0.32267539  0.90081806  0.30846893    -0.97200
Zr97       Zr  0.36972991  0.87420738  0.29140484     1.88900
O98         O  0.41649408  0.81367084  0.23602539    -0.73800
O99         O  0.39069134  0.80616593  0.41360245    -0.53100
O100        O  0.33200835  0.84174154  0.32851309    -0.97700
O101        O  0.34345395  0.88923088  0.22034416    -0.55000
O102        O  0.36772566  0.82741270  0.24749289    -0.74300
C103        C  0.38793419  0.80925124  0.23177181     0.98000
O104        O  0.48873409  0.82058064  0.23028501    -0.63100
O105        O  0.46722426  0.97578378  0.24737960    -0.57900
O106        O  0.47539017  0.86763674  0.20491264    -0.94600
O107        O  0.46702356  0.91791313  0.19369698    -0.93000
O108        O  0.51551971  0.95394547  0.34145578    -0.93400
O109        O  0.53290903  0.89501574  0.32356952    -0.92200
C110        C  0.47917064  0.89252002  0.18255177     1.16900
H111        H  0.45382653  0.96461475  0.33870090     0.32800
H112        H  0.48351106  0.84818536  0.36312045     0.43700
H113        H  0.40943979  0.87894245  0.21177645     0.37200
H114        H  0.36361870  0.88061179  0.38376054     0.33700
H115        H  0.53260063  0.89690556  0.42516974     0.25500
H116        H  0.39460112  0.80080917  0.44661784     0.31400
H117        H  0.31613477  0.83889496  0.30453473     0.37300
H118        H  0.53424811  0.95163620  0.36010603     0.31800
H119        H  0.48776818  0.96712433  0.25090368     0.30600
H120        H  0.38662141  0.94306720  0.18907192     0.32300
H121        H  0.35579230  0.88112090  0.19433019     0.31300
H122        H  0.53418161  0.87278769  0.32766609     0.35300
H123        H  0.50791926  0.82300301  0.24772529     0.28000
H124        H  0.37385567  0.97074863  0.45293419     0.32300
H125        H  0.32796312  0.91510843  0.33376797     0.35100
H126        H  0.46579404  0.98133427  0.21395659     0.27700
H127        H  0.48355552  0.79885143  0.23317437     0.40600
H128        H  0.43921858  0.83007114  0.48927026     0.30600
H129        H  0.50348688  0.88130207  0.44546093     0.38300
H130        H  0.34614855  0.91144870  0.21853216     0.30100
H131        H  0.36952672  0.81359671  0.41331881     0.30200
H132        H  0.35076534  0.96717080  0.41150050     0.30400
Zr133      Zr  0.69457270  0.83723162  0.89840654     2.17500
O134        O  0.72922949  0.86939119  0.85393666    -0.51900
O135        O  0.72024686  0.79958947  0.84810734    -0.75100
O136        O  0.74049854  0.85128273  0.94293651    -0.81900
O137        O  0.62496187  0.86209489  0.82496480    -0.83600
O138        O  0.73578831  0.83507981  0.01816705    -0.79300
O139        O  0.67414775  0.87356680  0.84010216    -0.90900
O140        O  0.70709368  0.75232691  0.87188871    -0.76900
O141        O  0.69995231  0.79406798  0.94819753    -0.86400
O142        O  0.65953725  0.80018475  0.87009571    -0.86100
O143        O  0.68237787  0.85410500  0.97660046    -0.72800
O144        O  0.64500667  0.85870980  0.90713184    -0.84900
Zr145      Zr  0.60410439  0.79491730  0.00556967     2.26400
Zr146      Zr  0.68731979  0.81017675  0.02588730     2.06300
Zr147      Zr  0.61018963  0.82196986  0.87823731     2.10000
Zr148      Zr  0.66424708  0.75758547  0.92101025     1.78800
O149        O  0.56659623  0.85269854  0.85617835    -0.93700
O150        O  0.69634450  0.72094924  0.96089349    -0.41600
O151        O  0.61503888  0.77863339  0.92763859    -0.78200
O152        O  0.65310645  0.77216885  0.99841955    -0.96900
O153        O  0.63807556  0.83209376  0.03441375    -0.90200
O154        O  0.59739451  0.83786723  0.95583023    -0.93000
C155        C  0.72211511  0.77043604  0.84612415     1.00700
C156        C  0.64873813  0.87842948  0.81889923     1.13700
C157        C  0.75020678  0.84845120  0.98516572     1.04400
O158        O  0.72877367  0.77726725  0.04947701    -0.95200
O159        O  0.67102603  0.77617068  0.08855707    -0.90900
O160        O  0.62027476  0.77043468  0.07810049    -0.84100
C161        C  0.64507732  0.76522185  0.10028025     1.11100
O162        O  0.65964910  0.92236224  0.97449709    -0.97200
Zr163      Zr  0.63239032  0.87466085  0.98420458     1.88900
O164        O  0.57136433  0.83116135  0.04439139    -0.73800
O165        O  0.69022985  0.84149770  0.09566555    -0.53100
O166        O  0.64740503  0.89430724  0.06011436    -0.97700
O167        O  0.60261281  0.91253735  0.94257400    -0.55000
O168        O  0.58642702  0.87924429  0.02924069    -0.74300
C169        C  0.56841354  0.85993956  0.04783491     0.98000
O170        O  0.57140269  0.75949520  0.04786041    -0.63100
O171        O  0.60891838  0.79641533  0.80281863    -0.57900
O172        O  0.56398776  0.77294068  0.95898335    -0.94600
O173        O  0.56436052  0.79176422  0.88500906    -0.93000
O174        O  0.64583272  0.73112043  0.85222816    -0.93400
O175        O  0.63743064  0.71092972  0.94007573    -0.92200
C176        C  0.55314675  0.77536565  0.91774063     1.16900
H177        H  0.66349726  0.79485704  0.83798848     0.32800
H178        H  0.65454007  0.75335500  0.01544887     0.43700
H179        H  0.57673356  0.84507219  0.95606291     0.37200
H180        H  0.69563929  0.87023688  0.98643890     0.33700
H181        H  0.70103236  0.70544203  0.93703781     0.25500
H182        H  0.67467785  0.83321361  0.11716774     0.31400
H183        H  0.63280434  0.91071693  0.06701709     0.37300
H184        H  0.62584761  0.74036742  0.84575755     0.31800
H185        H  0.58883930  0.80155416  0.78966685     0.30600
H186        H  0.55423393  0.83973645  0.83543642     0.32300
H187        H  0.58329796  0.90222017  0.93509813     0.31300
H188        H  0.61898798  0.71764009  0.95687522     0.35300
H189        H  0.55030420  0.76638223  0.04309073     0.28000
H190        H  0.74909657  0.85900581  0.85466334     0.32300
H191        H  0.64768013  0.93760812  0.99186315     0.35100
H192        H  0.62349834  0.80759777  0.78286603     0.27700
H193        H  0.57287728  0.74000555  0.03092616     0.40600
H194        H  0.73385094  0.78379867  0.08156926     0.30600
H195        H  0.71577883  0.73167386  0.96592581     0.38300
H196        H  0.61287450  0.91490664  0.91198762     0.30100
H197        H  0.70978970  0.83598671  0.11023744     0.30200
H198        H  0.73203707  0.88780907  0.87313498     0.30400
Zr199      Zr  0.80920294  0.63824670  0.64257635     2.17500
O200        O  0.77051247  0.60499544  0.67576685    -0.51900
O201        O  0.78474669  0.67457820  0.69688260    -0.75100
O202        O  0.82906559  0.60597940  0.70668328    -0.81900
O203        O  0.76506808  0.64302477  0.52593960    -0.83600
O204        O  0.87839230  0.61787206  0.72015753    -0.79300
O205        O  0.76273019  0.62375010  0.59969952    -0.90900
O206        O  0.80531113  0.72113718  0.68569721    -0.76900
O207        O  0.84549237  0.67415445  0.67011514    -0.86400
O208        O  0.80264275  0.68258959  0.59559310    -0.86100
O209        O  0.85814508  0.61527203  0.62818975    -0.72800
O210        O  0.81866101  0.62384694  0.56232238    -0.84900
Zr211      Zr  0.89811427  0.68190831  0.53383156     2.26400
Zr212      Zr  0.89433581  0.65153661  0.65732985     2.06300
Zr213      Zr  0.81327689  0.66871453  0.51602523     2.10000
Zr214      Zr  0.83934457  0.71807374  0.62214157     1.78800
O215        O  0.80888683  0.64045587  0.44345081    -0.93700
O216        O  0.86487438  0.74814689  0.68161217    -0.41600
O217        O  0.84941604  0.70442857  0.54384781    -0.78200
O218        O  0.88827932  0.69712619  0.61283574    -0.96900
O219        O  0.90476653  0.63696691  0.57822182    -0.90200
O220        O  0.86233744  0.64692531  0.50295438    -0.93000
C221        C  0.78740130  0.70302963  0.70647203     1.00700
C222        C  0.75164370  0.62825358  0.55859071     1.13700
C223        C  0.85445356  0.60219042  0.72847915     1.04400
O224        O  0.90620517  0.67812620  0.72939550    -0.95200
O225        O  0.94241795  0.67882636  0.64993964    -0.90900
O226        O  0.94272393  0.69820248  0.57627466    -0.84100
C227        C  0.95427700  0.69466184  0.61690191     1.11100
O228        O  0.84108192  0.55444519  0.55770395    -0.97200
Zr229      Zr  0.86794663  0.60234625  0.54881715     1.88900
O230        O  0.92945499  0.64679153  0.49023771    -0.73800
O231        O  0.93471725  0.61461165  0.66808283    -0.53100
O232        O  0.89709824  0.56370495  0.58974565    -0.97700
O233        O  0.85116699  0.57951840  0.47572664    -0.55000
O234        O  0.91350262  0.59865213  0.50181239    -0.74300
C235        C  0.93193749  0.61811000  0.48462600     0.98000
O236        O  0.93038473  0.71602644  0.48841178    -0.63100
O237        O  0.77310176  0.70379307  0.49406056    -0.57900
O238        O  0.87853330  0.71444074  0.47271357    -0.94600
O239        O  0.82849012  0.70683158  0.45879672    -0.93000
O240        O  0.79935245  0.75004363  0.59054629    -0.93400
O241        O  0.85927125  0.76664394  0.59584260    -0.92200
C242        C  0.85380835  0.72035103  0.45098958     1.16900
H243        H  0.78231560  0.69040555  0.59888335     0.32800
H244        H  0.90109776  0.71333283  0.62364326     0.43700
H245        H  0.86621899  0.64349576  0.47021773     0.37200
H246        H  0.86042925  0.59580234  0.64292779     0.33700
H247        H  0.84897751  0.76132179  0.69510998     0.25500
H248        H  0.94174900  0.61780634  0.70050343     0.31400
H249        H  0.91487862  0.55956560  0.56963400     0.37300
H250        H  0.78787751  0.75737998  0.61800391     0.31800
H251        H  0.75901490  0.69189995  0.47444086     0.30600
H252        H  0.78919712  0.64683844  0.43020967     0.32300
H253        H  0.86289143  0.56048859  0.47304675     0.31300
H254        H  0.87921633  0.76177995  0.58182419     0.35300
H255        H  0.93271883  0.73452386  0.50758212     0.28000
H256        H  0.76990000  0.60974265  0.70952054     0.32300
H257        H  0.82451445  0.55886717  0.58003591     0.35100
H258        H  0.76169810  0.70775065  0.52320285     0.27700
H259        H  0.95074800  0.70661449  0.48793263     0.40600
H260        H  0.88649570  0.68047845  0.74555620     0.30600
H261        H  0.86972193  0.73354706  0.70676604     0.38300
H262        H  0.85946954  0.59252782  0.45060252     0.30100
H263        H  0.92435435  0.59471810  0.66886693     0.30200
H264        H  0.77894890  0.58426084  0.67385368     0.30400
Zr265      Zr  0.10038626  0.04091290  0.88245353     2.17500
O266        O  0.13058981  0.00096425  0.91841857    -0.51900
O267        O  0.06360524  0.01690506  0.93681092    -0.75100
O268        O  0.13165846  0.05992302  0.94763750    -0.81900
O269        O  0.10310973  0.00076161  0.76169880    -0.83600
O270        O  0.11848739  0.10870061  0.96274166    -0.79300
O271        O  0.11768391  0.99625849  0.83764318    -0.90900
O272        O  0.01569722  0.03027848  0.91734067    -0.76900
O273        O  0.06196916  0.07466010  0.90910253    -0.86400
O274        O  0.05786035  0.03331609  0.83217838    -0.86100
O275        O  0.12220392  0.09101232  0.87196173    -0.72800
O276        O  0.11701000  0.05253534  0.80387746    -0.84900
Zr277      Zr  0.05752896  0.13041378  0.77605420     2.26400
Zr278      Zr  0.08342235  0.12442305  0.90131616     2.06300
Zr279      Zr  0.07366421  0.04668035  0.75455294     2.10000
Zr280      Zr  0.01989347  0.06751938  0.85778669     1.78800
O281        O  0.10054215  0.04285683  0.68047296    -0.93700
O282        O  0.98769740  0.08876385  0.91877381    -0.41600
O283        O  0.03553234  0.08079879  0.78099784    -0.78200
O284        O  0.03962565  0.11739608  0.85296333    -0.96900
O285        O  0.10078301  0.13717807  0.82411381    -0.90200
O286        O  0.09452704  0.09655069  0.74546760    -0.93000
C287        C  0.03457473  0.01591240  0.94246861     1.00700
C288        C  0.11656458  0.98680544  0.79504323     1.13700
C289        C  0.13456996  0.08494528  0.97051553     1.04400
O290        O  0.05496167  0.12527587  0.97417976    -0.95200
O291        O  0.05356221  0.17123050  0.89443548    -0.90900
O292        O  0.03644681  0.17257164  0.81960542    -0.84100
C293        C  0.03769186  0.18293883  0.86132324     1.11100
O294        O  0.18537279  0.07769710  0.81214450    -0.97200
Zr295      Zr  0.13747667  0.10252680  0.79413369     1.88900
O296        O  0.09327314  0.16512255  0.73955092    -0.73800
O297        O  0.11351929  0.16863459  0.92251865    -0.53100
O298        O  0.17634996  0.13522008  0.82734508    -0.97700
O299        O  0.16121210  0.08259157  0.72367094    -0.55000
O300        O  0.14130207  0.14830664  0.74760516    -0.74300
C301        C  0.12192380  0.16760030  0.73287250     0.98000
O302        O  0.02403101  0.16193979  0.72878639    -0.63100
O303        O  0.04087952  0.00379872  0.73672232    -0.57900
O304        O  0.03169815  0.11372647  0.70633254    -0.94600
O305        O  0.03841930  0.06326401  0.69460860    -0.93000
O306        O  0.99014741  0.02669262  0.82379492    -0.93400
O307        O  0.97162939  0.08644315  0.82880799    -0.92200
C308        C  0.02709906  0.08910283  0.68388912     1.16900
H309        H  0.05089156  0.01257435  0.83366751     0.32800
H310        H  0.02250304  0.12905164  0.86340510     0.43700
H311        H  0.09895711  0.10116669  0.71316521     0.37200
H312        H  0.14129759  0.09408546  0.88724619     0.33700
H313        H  0.97198869  0.07316188  0.92463533     0.25500
H314        H  0.13461558  0.16114730  0.92455384     0.31400
H315        H  0.18984580  0.14048191  0.80084073     0.37300
H316        H  0.97480623  0.02158654  0.84786127     0.31800
H317        H  0.02002881  0.01203458  0.73780321     0.30600
H318        H  0.09112307  0.02537433  0.66450259     0.32300
H319        H  0.15304112  0.09487778  0.69767011     0.31300
H320        H  0.97512766  0.10826870  0.82300355     0.35300
H321        H  0.00438891  0.16250326  0.74557652     0.28000
H322        H  0.12410086  0.00030671  0.95152657     0.32300
H323        H  0.18285770  0.06967327  0.84421899     0.35100
H324        H  0.04457579  0.99950324  0.70328356     0.27700
H325        H  0.03215492  0.18279950  0.73092728     0.40600
H326        H  0.03460073  0.13268735  0.96533364     0.30600
H327        H  0.00038719  0.08847448  0.94721544     0.38300
H328        H  0.15210688  0.06229327  0.71946266     0.30100
H329        H  0.11347439  0.18165880  0.89434370     0.30200
H330        H  0.15166807  0.00868293  0.91911765     0.30400
Zr331      Zr  0.90356924  0.93159196  0.15071073     2.17500
O332        O  0.87637426  0.96805514  0.10239600    -0.51900
O333        O  0.94173359  0.95458907  0.09722667    -0.75100
O334        O  0.88937904  0.97792758  0.19501182    -0.81900
O335        O  0.87685692  0.86106729  0.07973671    -0.83600
O336        O  0.90735834  0.97425777  0.26933353    -0.79300
O337        O  0.86620423  0.91043255  0.09460190    -0.90900
O338        O  0.98907839  0.93874129  0.11593295    -0.76900
O339        O  0.94744080  0.93656061  0.19864677    -0.86400
O340        O  0.93894736  0.89467958  0.12337179    -0.86100
O341        O  0.88715556  0.92071293  0.22997476    -0.72800
O342        O  0.88013082  0.88296822  0.16203703    -0.84900
Zr343      Zr  0.94366888  0.84136841  0.26018149     2.26400
Zr344      Zr  0.93197067  0.92544083  0.27738724     2.06300
Zr345      Zr  0.91560050  0.84616459  0.13469900     2.10000
Zr346      Zr  0.98255247  0.89947469  0.17183929     1.78800
O347        O  0.88365074  0.80167005  0.12415282    -0.93700
O348        O  0.01700544  0.93632935  0.20645000    -0.41600
O349        O  0.95968839  0.85118711  0.18193199    -0.78200
O350        O  0.96866258  0.88936193  0.25054154    -0.96900
O351        O  0.90802601  0.87719355  0.28834005    -0.90200
O352        O  0.89979547  0.83489054  0.21306731    -0.93000
C353        C  0.97082451  0.95445855  0.09161696     1.00700
C354        C  0.86100703  0.88505923  0.07343826     1.13700
C355        C  0.89295076  0.98822441  0.23688428     1.04400
O356        O  0.96987099  0.96423696  0.29286943    -0.95200
O357        O  0.96405579  0.90809104  0.34189287    -0.90900
O358        O  0.97069539  0.85772494  0.32962498    -0.84100
C359        C  0.97546998  0.88218115  0.35257269     1.11100
O360        O  0.81597758  0.89612478  0.22480352    -0.97200
Zr361      Zr  0.86448912  0.87165875  0.24003272     1.88900
O362        O  0.90721686  0.81329829  0.30645285    -0.73800
O363        O  0.90322484  0.93388403  0.34892112    -0.53100
O364        O  0.83814954  0.89259696  0.30749054    -0.97700
O365        O  0.83036314  0.83786997  0.19808174    -0.55000
O366        O  0.85938774  0.83065586  0.29605315    -0.74300
C367        C  0.87878162  0.81313570  0.31533410     0.98000
O368        O  0.97281032  0.80080263  0.29679898    -0.63100
O369        O  0.93840316  0.84015467  0.05759328    -0.57900
O370        O  0.96486936  0.80041616  0.21438191    -0.94600
O371        O  0.94681164  0.80113640  0.14003305    -0.93000
O372        O  0.00648620  0.87556523  0.10471874    -0.93400
O373        O  0.03078143  0.87472196  0.18769843    -0.92200
C374        C  0.96292082  0.78979648  0.17287115     1.16900
H375        H  0.94388630  0.89751423  0.09079137     0.32800
H376        H  0.98751173  0.89064657  0.26712743     0.43700
H377        H  0.89187889  0.81456458  0.21539360     0.37200
H378        H  0.87142042  0.93437944  0.24006605     0.33700
H379        H  0.02628937  0.92602760  0.23358213     0.25500
H380        H  0.90231638  0.91385176  0.36444460     0.31400
H381        H  0.85306485  0.89168765  0.33318733     0.37300
H382        H  0.99508599  0.85646455  0.10029504     0.31800
H383        H  0.92876524  0.82175947  0.04461728     0.30600
H384        H  0.88903994  0.79384602  0.09286204     0.32300
H385        H  0.83042762  0.81870220  0.21605569     0.31300
H386        H  0.02766859  0.86410816  0.21780028     0.35300
H387        H  0.99398123  0.80822392  0.29832138     0.28000
H388        H  0.88796798  0.98720015  0.10473624     0.32300
H389        H  0.80033700  0.88215520  0.23728527     0.35100
H390        H  0.93027022  0.85692857  0.03839665     0.27700
H391        H  0.96591243  0.79980914  0.32969327     0.40600
H392        H  0.97334692  0.97429314  0.26240071     0.30600
H393        H  0.03374002  0.93854095  0.18359569     0.38300
H394        H  0.84110426  0.83299392  0.16869333     0.30100
H395        H  0.91686481  0.94606002  0.36888190     0.30200
H396        H  0.85710596  0.97204082  0.11906659     0.30400
Zr397      Zr  0.19784124  0.83548690  0.63284035     2.17500
O398        O  0.23654194  0.86815725  0.66700948    -0.51900
O399        O  0.22070421  0.79958262  0.68967871    -0.75100
O400        O  0.17790329  0.86865688  0.69509673    -0.81900
O401        O  0.24261371  0.83195037  0.51679393    -0.83600
O402        O  0.12833144  0.85714030  0.70765878    -0.79300
O403        O  0.24475408  0.84960899  0.59139186    -0.90900
O404        O  0.20569622  0.75177950  0.67292989    -0.76900
O405        O  0.16260607  0.79856290  0.65987907    -0.86400
O406        O  0.20600273  0.79145755  0.58634618    -0.86100
O407        O  0.14860055  0.85765103  0.61705469    -0.72800
O408        O  0.18830076  0.84975900  0.55251380    -0.84900
Zr409      Zr  0.11033632  0.79034020  0.52396930     2.26400
Zr410      Zr  0.11353983  0.82068633  0.64759507     2.06300
Zr411      Zr  0.19531286  0.80494860  0.50696441     2.10000
Zr412      Zr  0.17012159  0.75491903  0.61173618     1.78800
O413        O  0.20800254  0.83246172  0.43582876    -0.93700
O414        O  0.14650538  0.72742646  0.67631799    -0.41600
O415        O  0.15943753  0.76796220  0.53294445    -0.78200
O416        O  0.12114222  0.77543721  0.60269343    -0.96900
O417        O  0.10273336  0.83506256  0.56847718    -0.90200
O418        O  0.14586716  0.82551753  0.49281845    -0.93000
C419        C  0.22063343  0.77069605  0.69709417     1.00700
C420        C  0.25579584  0.84614721  0.55006429     1.13700
C421        C  0.15230378  0.87280122  0.71605266     1.04400
O422        O  0.10677544  0.79597924  0.72303508    -0.95200
O423        O  0.06689333  0.79063935  0.64083184    -0.90900
O424        O  0.06623194  0.77268821  0.56638415    -0.84100
C425        C  0.05535498  0.77454948  0.60786026     1.11100
O426        O  0.16697379  0.91742823  0.54088430    -0.97200
Zr427      Zr  0.13871776  0.87003545  0.53723010     1.88900
O428        O  0.07720565  0.82436763  0.48148977    -0.73800
O429        O  0.07016516  0.85396015  0.65887189    -0.53100
O430        O  0.11334263  0.91414498  0.56986728    -0.97700
O431        O  0.15365496  0.88423168  0.45807651    -0.55000
O432        O  0.09034529  0.87292740  0.49629980    -0.74300
C433        C  0.07267561  0.85294206  0.47844518     0.98000
O434        O  0.07673073  0.75079466  0.49432463    -0.63100
O435        O  0.23362216  0.76589072  0.49564704    -0.57900
O436        O  0.12822551  0.76620340  0.45310449    -0.94600
O437        O  0.17888927  0.77326077  0.44260128    -0.93000
O438        O  0.21037910  0.72319585  0.58029278    -0.93400
O439        O  0.15228300  0.70542562  0.58623135    -0.92200
C440        C  0.15315574  0.76203854  0.43096700     1.16900
H441        H  0.22647135  0.78420249  0.59006694     0.32800
H442        H  0.10879507  0.75881298  0.61320674     0.43700
H443        H  0.14230181  0.82862431  0.45988871     0.37200
H444        H  0.14587962  0.87724760  0.63101692     0.33700
H445        H  0.14202215  0.74316077  0.69990816     0.25500
H446        H  0.06231491  0.84866839  0.69026427     0.31400
H447        H  0.09957311  0.90583049  0.59403242     0.37300
H448        H  0.21469262  0.70826652  0.60523369     0.31800
H449        H  0.24277396  0.77058239  0.46488206     0.30600
H450        H  0.22509741  0.82103843  0.42200929     0.32300
H451        H  0.17597983  0.88639448  0.45905539     0.31300
H452        H  0.13967092  0.70969407  0.55845791     0.35300
H453        H  0.07198869  0.75634321  0.46163933     0.28000
H454        H  0.23724405  0.86266631  0.70052184     0.32300
H455        H  0.18836427  0.91169235  0.53527993     0.35100
H456        H  0.24985879  0.77049741  0.51832811     0.27700
H457        H  0.08912514  0.73215400  0.49227570     0.40600
H458        H  0.12656166  0.79807785  0.73895418     0.30600
H459        H  0.12633540  0.72092263  0.66505703     0.38300
H460        H  0.14593692  0.90508187  0.45372674     0.30100
H461        H  0.07889850  0.87447056  0.66257027     0.30200
H462        H  0.22823895  0.88897688  0.66617397     0.30400
Zr463      Zr  0.30539969  0.64185186  0.90753492     2.17500
O464        O  0.27120886  0.60928154  0.86336369    -0.51900
O465        O  0.28062084  0.67931192  0.85520751    -0.75100
O466        O  0.25899408  0.62848354  0.95127022    -0.81900
O467        O  0.37421281  0.61929379  0.83037996    -0.83600
O468        O  0.26393729  0.64333025  0.02698856    -0.79300
O469        O  0.32669861  0.60487865  0.85142780    -0.90900
O470        O  0.29454839  0.72689898  0.87552908    -0.76900
O471        O  0.29965074  0.68465738  0.95748814    -0.86400
O472        O  0.34002225  0.67906049  0.87886011    -0.86100
O473        O  0.31792081  0.62476552  0.98563053    -0.72800
O474        O  0.35514631  0.62062158  0.91613428    -0.84900
Zr475      Zr  0.39637791  0.68428659  0.01189301     2.26400
Zr476      Zr  0.31274779  0.66840788  0.03497525     2.06300
Zr477      Zr  0.38944847  0.65756957  0.88588701     2.10000
Zr478      Zr  0.33484025  0.72154258  0.92959088     1.78800
O479        O  0.43279012  0.62585038  0.86645474    -0.93700
O480        O  0.29964851  0.75506147  0.96988351    -0.41600
O481        O  0.38452756  0.70112525  0.93473307    -0.78200
O482        O  0.34688291  0.70654906  0.00674821    -0.96900
O483        O  0.36256088  0.64725689  0.04261920    -0.90200
O484        O  0.40278817  0.64121467  0.96295993    -0.93000
C485        C  0.27969801  0.70842884  0.85030621     1.00700
C486        C  0.35142778  0.60133799  0.82774168     1.13700
C487        C  0.24926793  0.63069000  0.99356907     1.04400
O488        O  0.27235654  0.70349410  0.05539169    -0.95200
O489        O  0.33106352  0.69989567  0.09936710    -0.90900
O490        O  0.38112669  0.70795739  0.08462508    -0.84100
C491        C  0.35700900  0.71160941  0.10914633     1.11100
O492        O  0.34185353  0.55676893  0.98037041    -0.97200
Zr493      Zr  0.36816707  0.60457940  0.99329977     1.88900
O494        O  0.43122020  0.64941995  0.04913764    -0.73800
O495        O  0.30689119  0.63765788  0.10520265    -0.53100
O496        O  0.34874391  0.58471683  0.06695707    -0.97700
O497        O  0.39897341  0.56522502  0.95704720    -0.55000
O498        O  0.41400140  0.60147798  0.04013936    -0.74300
C499        C  0.43334471  0.62077963  0.05534258     0.98000
O500        O  0.42870651  0.71975089  0.05420474    -0.63100
O501        O  0.39183804  0.68412279  0.81111725    -0.57900
O502        O  0.43580358  0.70649725  0.96340482    -0.94600
O503        O  0.43538468  0.68743998  0.88975351    -0.93000
O504        O  0.35378823  0.74862716  0.86141533    -0.93400
O505        O  0.35960358  0.76935086  0.94812022    -0.92200
C506        C  0.44642367  0.70427244  0.92186002     1.16900
H507        H  0.33622280  0.68436478  0.84668617     0.32800
H508        H  0.34528560  0.72499452  0.02451770     0.43700
H509        H  0.42340251  0.63397145  0.96279621     0.37200
H510        H  0.30454146  0.60865547  0.99545442     0.33700
H511        H  0.29179300  0.76872883  0.94530943     0.25500
H512        H  0.32731107  0.63707061  0.11943224     0.31400
H513        H  0.36674638  0.57709544  0.08381650     0.37300
H514        H  0.37477459  0.74117627  0.85724664     0.31800
H515        H  0.41029172  0.67616846  0.79573406     0.30600
H516        H  0.43697643  0.63010005  0.83310374     0.32300
H517        H  0.42024950  0.57159943  0.96187443     0.31300
H518        H  0.36760131  0.76669096  0.98011870     0.35300
H519        H  0.44961402  0.71187947  0.05120601     0.28000
H520        H  0.25149988  0.61996973  0.86266334     0.32300
H521        H  0.35163730  0.54194271  0.00145545     0.35100
H522        H  0.37495852  0.67588486  0.79229449     0.27700
H523        H  0.42857152  0.73882275  0.03596520     0.40600
H524        H  0.26765697  0.69899823  0.08850023     0.30600
H525        H  0.28216102  0.74206767  0.97826591     0.38300
H526        H  0.39563515  0.56780800  0.92310633     0.30100
H527        H  0.29477189  0.65034403  0.12672866     0.30200
H528        H  0.26770586  0.59125874  0.88330620     0.30400
Zr529      Zr  0.19787842  0.33636170  0.40400926     2.17500
O530        O  0.23224115  0.36906899  0.35994415    -0.51900
O531        O  0.22276895  0.30039790  0.34981016    -0.75100
O532        O  0.24375273  0.35060429  0.44911590    -0.81900
O533        O  0.12743297  0.35809032  0.32878083    -0.83600
O534        O  0.23991610  0.33147667  0.52283431    -0.79300
O535        O  0.17521714  0.37266757  0.34755412    -0.90900
O536        O  0.20727199  0.25264500  0.36767004    -0.76900
O537        O  0.20431922  0.29341041  0.45382822    -0.86400
O538        O  0.16306307  0.29885694  0.37653823    -0.86100
O539        O  0.18523877  0.35264837  0.48247942    -0.72800
O540        O  0.14798963  0.35676004  0.41317713    -0.84900
Zr541      Zr  0.10698365  0.29349068  0.51085636     2.26400
Zr542      Zr  0.19046761  0.30854797  0.53146134     2.06300
Zr543      Zr  0.11324198  0.31964641  0.38484903     2.10000
Zr544      Zr  0.16956776  0.25621628  0.42697200     1.78800
O545        O  0.06986785  0.35218506  0.36940548    -0.93700
O546        O  0.21103865  0.22746289  0.46157745    -0.41600
O547        O  0.11962418  0.27646254  0.43391475    -0.78200
O548        O  0.15623499  0.27040624  0.50437288    -0.96900
O549        O  0.14107110  0.33053655  0.54005720    -0.90200
O550        O  0.09996308  0.33628477  0.46183876    -0.93000
C551        C  0.22264408  0.27144528  0.34360245     1.00700
C552        C  0.15014326  0.37605425  0.32470748     1.13700
C553        C  0.25388223  0.34642056  0.49091643     1.04400
O554        O  0.22818420  0.27101414  0.55382926    -0.95200
O555        O  0.17229230  0.27780531  0.59697188    -0.90900
O556        O  0.12229163  0.26946565  0.58330393    -0.84100
C557        C  0.14643922  0.26613350  0.60750312     1.11100
O558        O  0.15709626  0.42266624  0.47304768    -0.97200
Zr559      Zr  0.13503583  0.37314845  0.48991312     1.88900
O560        O  0.07405692  0.32924837  0.55134671    -0.73800
O561        O  0.19939546  0.34042030  0.59929307    -0.53100
O562        O  0.15574283  0.39849350  0.55829595    -0.97700
O563        O  0.10223467  0.40742451  0.44628333    -0.55000
O564        O  0.09161868  0.37709512  0.54181226    -0.74300
C565        C  0.07282362  0.35787117  0.55890221     0.98000
O566        O  0.06810194  0.26046475  0.54430369    -0.63100
O567        O  0.10879610  0.29482559  0.30916527    -0.57900
O568        O  0.06829997  0.26983894  0.46375113    -0.94600
O569        O  0.06892555  0.28692049  0.38904700    -0.93000
O570        O  0.14709391  0.22563263  0.36536406    -0.93400
O571        O  0.15291083  0.20615860  0.45210470    -0.92200
C572        C  0.05800778  0.27040043  0.42193668     1.16900
H573        H  0.16630031  0.29378161  0.34420888     0.32800
H574        H  0.15769695  0.25192032  0.52219779     0.43700
H575        H  0.07925552  0.34333037  0.46263564     0.37200
H576        H  0.19861215  0.36862999  0.49269759     0.33700
H577        H  0.21368944  0.20968577  0.44096652     0.25500
H578        H  0.18150779  0.33721794  0.61965654     0.31400
H579        H  0.14542454  0.38895243  0.58528487     0.37300
H580        H  0.15069252  0.23721597  0.33623926     0.31800
H581        H  0.09071486  0.30413111  0.29464506     0.30600
H582        H  0.06044458  0.34367318  0.34097629     0.32300
H583        H  0.08252547  0.39683582  0.44386930     0.31300
H584        H  0.13087424  0.20835430  0.45773911     0.35300
H585        H  0.07784755  0.24052509  0.54922228     0.28000
H586        H  0.25203955  0.35854011  0.35979563     0.32300
H587        H  0.14474507  0.43743629  0.49078424     0.35100
H588        H  0.12601235  0.30246753  0.29027707     0.27700
H589        H  0.06389700  0.26832938  0.57599731     0.40600
H590        H  0.21794184  0.25122187  0.54992080     0.30600
H591        H  0.22947938  0.23978829  0.45611574     0.38300
H592        H  0.11040923  0.40732013  0.41404301     0.30100
H593        H  0.21627478  0.33043071  0.61601528     0.30200
H594        H  0.23536649  0.38717362  0.37971274     0.30400
Zr595      Zr  0.30220599  0.13923152  0.13422306     2.17500
O596        O  0.26170913  0.10977217  0.17069127    -0.51900
O597        O  0.27974004  0.17468225  0.19156966    -0.75100
O598        O  0.32204774  0.10579365  0.19646666    -0.81900
O599        O  0.26042199  0.13788793  0.01625774    -0.83600
O600        O  0.37061155  0.11953445  0.21180302    -0.79300
O601        O  0.25698684  0.12200147  0.09174972    -0.90900
O602        O  0.28922937  0.22310605  0.16937469    -0.76900
O603        O  0.33534468  0.17792627  0.16124244    -0.86400
O604        O  0.29311973  0.18196391  0.08459145    -0.86100
O605        O  0.35233684  0.11841200  0.12114182    -0.72800
O606        O  0.31368328  0.12415908  0.05486490    -0.84900
Zr607      Zr  0.39001004  0.18675108  0.02861717     2.26400
Zr608      Zr  0.38528340  0.15674930  0.15231512     2.06300
Zr609      Zr  0.30634110  0.16763804  0.00628394     2.10000
Zr610      Zr  0.32664493  0.22038590  0.11067078     1.78800
O611        O  0.30343858  0.13716402  0.93568258    -0.93700
O612        O  0.34873662  0.25250881  0.17077547    -0.41600
O613        O  0.33955414  0.20652996  0.03347029    -0.78200
O614        O  0.37671688  0.20149711  0.10660120    -0.96900
O615        O  0.39819209  0.14245872  0.07401572    -0.90200
O616        O  0.35718446  0.14950782  0.99585047    -0.93000
C617        C  0.27734636  0.20361775  0.19638655     1.00700
C618        C  0.24703727  0.12368649  0.04961331     1.13700
C619        C  0.34734590  0.10239920  0.21845517     1.04400
O620        O  0.39085562  0.17817468  0.23007908    -0.95200
O621        O  0.43117116  0.18830850  0.14725231    -0.90900
O622        O  0.43227336  0.20703940  0.07315356    -0.84100
C623        C  0.44275635  0.20501262  0.11482383     1.11100
O624        O  0.34106226  0.05635852  0.05538248    -0.97200
Zr625      Zr  0.36425424  0.10577527  0.04240531     1.88900
O626        O  0.42301584  0.15368921  0.98430068    -0.73800
O627        O  0.42989399  0.12502480  0.16239177    -0.53100
O628        O  0.39580535  0.06589066  0.07504594    -0.97700
O629        O  0.34455547  0.08719496  0.96837664    -0.55000
O630        O  0.41096488  0.10459160  0.99707287    -0.74300
C631        C  0.42800870  0.12532033  0.97964353     0.98000
O632        O  0.42633403  0.22248238  0.99479347    -0.63100
O633        O  0.26398478  0.19920622  0.98160562    -0.57900
O634        O  0.37081978  0.21519609  0.96277314    -0.94600
O635        O  0.32155081  0.20416592  0.94672715    -0.93000
O636        O  0.28510806  0.25070378  0.08004185    -0.93400
O637        O  0.34382714  0.26880121  0.07943476    -0.92200
C638        C  0.34651578  0.21833713  0.93897024     1.16900
H639        H  0.27222799  0.18839028  0.08662956     0.32800
H640        H  0.38803198  0.21839505  0.11829977     0.43700
H641        H  0.36187377  0.14595254  0.96332658     0.37200
H642        H  0.35569398  0.09882349  0.13489183     0.33700
H643        H  0.33156105  0.26424002  0.18371624     0.25500
H644        H  0.43867899  0.13163447  0.19247137     0.31400
H645        H  0.41027870  0.07663532  0.09551610     0.37300
H646        H  0.28430713  0.24561750  0.04643379     0.31800
H647        H  0.25602411  0.18922781  0.95324089     0.30600
H648        H  0.28327111  0.14172106  0.92236308     0.32300
H649        H  0.32281088  0.08312213  0.97436616     0.31300
H650        H  0.36486671  0.26503889  0.06886322     0.35300
H651        H  0.42790705  0.21742728  0.96121046     0.28000
H652        H  0.26404616  0.11269131  0.20475927     0.32300
H653        H  0.31963768  0.06084229  0.06306341     0.35100
H654        H  0.24800211  0.19611519  0.00546836     0.27700
H655        H  0.41652199  0.24263769  0.99585965     0.40600
H656        H  0.37485533  0.19376792  0.23242670     0.30600
H657        H  0.35441636  0.23839496  0.19612964     0.38300
H658        H  0.35374830  0.06692688  0.96434706     0.30100
H659        H  0.42185351  0.10450120  0.16883945     0.30200
H660        H  0.26694328  0.08830183  0.16512282     0.30400
Zr661      Zr  0.60088493  0.54593157  0.38856833     2.17500
O662        O  0.63157027  0.50637962  0.42437064    -0.51900
O663        O  0.56461749  0.52199633  0.44411506    -0.75100
O664        O  0.63488500  0.56663818  0.45023761    -0.81900
O665        O  0.59636540  0.49990982  0.27423605    -0.83600
O666        O  0.62341970  0.61617968  0.46068032    -0.79300
O667        O  0.61610100  0.49935348  0.34760672    -0.90900
O668        O  0.51667744  0.53601315  0.42612389    -0.76900
O669        O  0.56410416  0.58134987  0.41550506    -0.86400
O670        O  0.55642771  0.53771719  0.34263811    -0.86100
O671        O  0.62344233  0.59477666  0.37131355    -0.72800
O672        O  0.61461545  0.55469457  0.30755665    -0.84900
Zr673      Zr  0.55519189  0.63205996  0.27768794     2.26400
Zr674      Zr  0.58660235  0.63004607  0.40095029     2.06300
Zr675      Zr  0.56942917  0.54721112  0.26260171     2.10000
Zr676      Zr  0.52012834  0.57378105  0.36792065     1.78800
O677        O  0.59638002  0.53494101  0.19082164    -0.93700
O678        O  0.49325655  0.59796773  0.43228462    -0.41600
O679        O  0.53248142  0.58314143  0.28832284    -0.78200
O680        O  0.54107699  0.62241905  0.35713579    -0.96900
O681        O  0.60022519  0.64026090  0.32125133    -0.90200
O682        O  0.59046665  0.59640564  0.24705125    -0.93000
C683        C  0.53558954  0.52099933  0.45019151     1.00700
C684        C  0.61180907  0.48756390  0.30705902     1.13700
C685        C  0.63933239  0.59256015  0.47014590     1.04400
O686        O  0.56029029  0.63621474  0.47513211    -0.95200
O687        O  0.55892950  0.67759581  0.39113312    -0.90900
O688        O  0.53857941  0.67710250  0.31807995    -0.84100
C689        C  0.54243590  0.68885409  0.35849072     1.11100
O690        O  0.68437609  0.57961927  0.29701190    -0.97200
Zr691      Zr  0.63518393  0.60418218  0.29121741     1.88900
O692        O  0.58869598  0.66490911  0.23337714    -0.73800
O693        O  0.61912176  0.67364357  0.41526297    -0.53100
O694        O  0.67688396  0.63191611  0.32673427    -0.97700
O695        O  0.65523734  0.58652508  0.21673247    -0.55000
O696        O  0.63732878  0.65159653  0.24740642    -0.74300
C697        C  0.61731203  0.66923054  0.22962470     0.98000
O698        O  0.51415270  0.66454986  0.24999444    -0.63100
O699        O  0.53235238  0.50707087  0.24989361    -0.57900
O700        O  0.53105516  0.61432997  0.20723466    -0.94600
O701        O  0.53560267  0.56329009  0.19990867    -0.93000
O702        O  0.48632958  0.53501432  0.33729915    -0.93400
O703        O  0.47133290  0.59584894  0.34757635    -0.92200
C704        C  0.52548692  0.58921635  0.18674217     1.16900
H705        H  0.54901322  0.51732259  0.34689568     0.32800
H706        H  0.52487779  0.63524719  0.36786379     0.43700
H707        H  0.59365219  0.59963288  0.21401412     0.37200
H708        H  0.64316779  0.59754544  0.38485749     0.33700
H709        H  0.48115321  0.58167491  0.44713307     0.25500
H710        H  0.61692218  0.67778625  0.44905952     0.31400
H711        H  0.66730509  0.65000998  0.34071129     0.37300
H712        H  0.48887676  0.53618892  0.30300451     0.31800
H713        H  0.53998831  0.49598596  0.22226344     0.30600
H714        H  0.58083755  0.52601065  0.17011515     0.32300
H715        H  0.64579283  0.59951143  0.19262779     0.31300
H716        H  0.47489842  0.60607731  0.31726327     0.35300
H717        H  0.51837278  0.66897047  0.21669732     0.28000
H718        H  0.62839817  0.50838871  0.45844490     0.32300
H719        H  0.68155681  0.56382358  0.32121390     0.35100
H720        H  0.53499989  0.49270262  0.27612027     0.27700
H721        H  0.49569000  0.65176131  0.25011428     0.40600
H722        H  0.56142676  0.65817197  0.48181917     0.30600
H723        H  0.50917735  0.60277158  0.45538859     0.38300
H724        H  0.64606507  0.56628854  0.21222271     0.30100
H725        H  0.64004888  0.66590868  0.41179992     0.30200
H726        H  0.65289711  0.51238026  0.41884705     0.30400
Zr727      Zr  0.40440996  0.43541585  0.65731933     2.17500
O728        O  0.37441567  0.47144205  0.61223218    -0.51900
O729        O  0.44170824  0.45853259  0.60270908    -0.75100
O730        O  0.39146259  0.48161087  0.70192837    -0.81900
O731        O  0.38191614  0.36734048  0.57913324    -0.83600
O732        O  0.40844524  0.47694461  0.77664244    -0.79300
O733        O  0.36637525  0.41376841  0.60302579    -0.90900
O734        O  0.48896320  0.44346884  0.62297407    -0.76900
O735        O  0.44837677  0.44019529  0.70540306    -0.86400
O736        O  0.43969165  0.39885550  0.62886076    -0.86100
O737        O  0.38815489  0.42419056  0.73645306    -0.72800
O738        O  0.38112251  0.38676729  0.66794645    -0.84900
Zr739      Zr  0.44542385  0.34402484  0.76343323     2.26400
Zr740      Zr  0.43294567  0.42820173  0.78379700     2.06300
Zr741      Zr  0.41645099  0.35028867  0.63906361     2.10000
Zr742      Zr  0.48336015  0.40336793  0.67724934     1.78800
O743        O  0.37927545  0.31003340  0.62892775    -0.93700
O744        O  0.52054006  0.43805329  0.71033478    -0.41600
O745        O  0.46123763  0.35452534  0.68522125    -0.78200
O746        O  0.46955062  0.39266951  0.75553974    -0.96900
O747        O  0.40991868  0.37947982  0.79367454    -0.90200
O748        O  0.40104177  0.33844741  0.71718187    -0.93000
C749        C  0.47084694  0.45874714  0.59782529     1.00700
C750        C  0.36336423  0.38961698  0.57790887     1.13700
C751        C  0.39462786  0.49130979  0.74409413     1.04400
O752        O  0.47027676  0.46706626  0.80155773    -0.95200
O753        O  0.46426518  0.40954195  0.84783331    -0.90900
O754        O  0.47230058  0.35954986  0.83317586    -0.84100
C755        C  0.47615392  0.38369380  0.85729104     1.11100
O756        O  0.31719470  0.40016884  0.73740571    -0.97200
Zr757      Zr  0.36606644  0.37507418  0.74615751     1.88900
O758        O  0.40879083  0.31239730  0.80400881    -0.73800
O759        O  0.40485775  0.43678602  0.85596556    -0.53100
O760        O  0.34515614  0.39546828  0.81841267    -0.97700
O761        O  0.32823549  0.34485578  0.70535651    -0.55000
O762        O  0.36132087  0.33128691  0.79627583    -0.74300
C763        C  0.38016818  0.31167577  0.81159594     0.98000
O764        O  0.47563519  0.30749872  0.80737252    -0.63100
O765        O  0.44133280  0.33983234  0.56477792    -0.57900
O766        O  0.46763448  0.30480043  0.71424046    -0.94600
O767        O  0.44499731  0.30353420  0.64309985    -0.93000
O768        O  0.50742557  0.38251112  0.60787956    -0.93400
O769        O  0.53068015  0.37819131  0.69709694    -0.92200
C770        C  0.46334151  0.29312662  0.67376587     1.16900
H771        H  0.44447497  0.40189096  0.59624709     0.32800
H772        H  0.48849498  0.39400319  0.77207311     0.43700
H773        H  0.39302172  0.31807374  0.71835899     0.37200
H774        H  0.37241225  0.43776282  0.74671813     0.33700
H775        H  0.53579969  0.44103869  0.68532499     0.25500
H776        H  0.38416876  0.44241923  0.84587929     0.31400
H777        H  0.35613141  0.38489674  0.84373875     0.37300
H778        H  0.49352004  0.36632222  0.59735085     0.31800
H779        H  0.42846478  0.32427904  0.54978700     0.30600
H780        H  0.38086311  0.30434315  0.59560776     0.32300
H781        H  0.33332373  0.32357132  0.71282266     0.31300
H782        H  0.52435862  0.35899215  0.71217081     0.35300
H783        H  0.46768026  0.28723877  0.79914438     0.28000
H784        H  0.38592344  0.49070394  0.61280160     0.32300
H785        H  0.30251622  0.38762390  0.75516797     0.35100
H786        H  0.43839044  0.35823218  0.54554876     0.27700
H787        H  0.49620283  0.30825707  0.79346653     0.40600
H788        H  0.48998082  0.45770767  0.79360484     0.30600
H789        H  0.50992558  0.45774611  0.71235069     0.38300
H790        H  0.33334861  0.34707484  0.67185585     0.30100
H791        H  0.40247832  0.41648795  0.87024421     0.30200
H792        H  0.35599699  0.47534453  0.63111757     0.30400
Zr793      Zr  0.80777904  0.14116972  0.40306939     2.17500
O794        O  0.76989383  0.11416083  0.35720643    -0.51900
O795        O  0.78390437  0.17974168  0.35166252    -0.75100
O796        O  0.76284515  0.12624002  0.45063101    -0.81900
O797        O  0.87597158  0.11691888  0.32401907    -0.83600
O798        O  0.76941588  0.14061803  0.52626803    -0.79300
O799        O  0.82809956  0.10393707  0.34571203    -0.90900
O800        O  0.79825101  0.22670166  0.37477273    -0.76900
O801        O  0.80421572  0.18401720  0.45372121    -0.86400
O802        O  0.84345914  0.17751548  0.37419761    -0.86100
O803        O  0.82124681  0.12308703  0.48035641    -0.72800
O804        O  0.85694749  0.11847237  0.40929369    -0.84900
Zr805      Zr  0.90081616  0.18046344  0.50707116     2.26400
Zr806      Zr  0.81768401  0.16663683  0.53049299     2.06300
Zr807      Zr  0.89240445  0.15474138  0.38006848     2.10000
Zr808      Zr  0.84030878  0.21996799  0.42532764     1.78800
O809        O  0.93282200  0.12033227  0.35705869    -0.93700
O810        O  0.80755032  0.25725441  0.46247787    -0.41600
O811        O  0.88961024  0.19823415  0.42987809    -0.78200
O812        O  0.85216969  0.20438897  0.50235985    -0.96900
O813        O  0.86655738  0.14344357  0.53637353    -0.90200
O814        O  0.90596183  0.13795885  0.45688930    -0.93000
C815        C  0.78315107  0.20894944  0.34873599     1.00700
C816        C  0.85257543  0.09968926  0.32142581     1.13700
C817        C  0.75425698  0.12762511  0.49378327     1.04400
O818        O  0.77709608  0.20173283  0.55035677    -0.95200
O819        O  0.83700859  0.19709006  0.59505116    -0.90900
O820        O  0.88708743  0.20485101  0.58039698    -0.84100
C821        C  0.86306485  0.20828426  0.60531060     1.11100
O822        O  0.84640953  0.05273905  0.47057823    -0.97200
Zr823      Zr  0.87089212  0.10129994  0.48521841     1.88900
O824        O  0.93265005  0.14372371  0.54598698    -0.73800
O825        O  0.81479596  0.13889618  0.60386230    -0.53100
O826        O  0.85139353  0.07395502  0.55284527    -0.97700
O827        O  0.90418857  0.06803920  0.44045073    -0.55000
O828        O  0.91441940  0.09619630  0.53587878    -0.74300
C829        C  0.93351737  0.11506094  0.55271770     0.98000
O830        O  0.93458685  0.21495032  0.54864626    -0.63100
O831        O  0.89377920  0.18382409  0.30756643    -0.57900
O832        O  0.94344357  0.19739830  0.46046821    -0.94600
O833        O  0.94090215  0.18043091  0.38566856    -0.93000
O834        O  0.86077570  0.24466655  0.35597263    -0.93400
O835        O  0.86589609  0.26685627  0.44643374    -0.92200
C836        C  0.95401840  0.19456692  0.41903002     1.16900
H837        H  0.83965394  0.18303326  0.34209840     0.32800
H838        H  0.85118881  0.22274299  0.52044342     0.43700
H839        H  0.92656273  0.13057140  0.45684053     0.37200
H840        H  0.80814488  0.10683836  0.49050138     0.33700
H841        H  0.80143566  0.27119509  0.43708038     0.25500
H842        H  0.79418864  0.14298708  0.61604588     0.31400
H843        H  0.85942174  0.08504010  0.58013819     0.37300
H844        H  0.84832913  0.26313505  0.35203721     0.31800
H845        H  0.91355130  0.19443334  0.30759941     0.30600
H846        H  0.93939305  0.12759880  0.32591817     0.32300
H847        H  0.92368382  0.07896991  0.43740073     0.31300
H848        H  0.88373749  0.26029346  0.46472954     0.35300
H849        H  0.95497298  0.20561699  0.54736937     0.28000
H850        H  0.75070193  0.12539807  0.36172710     0.32300
H851        H  0.86144372  0.03707891  0.47920402     0.35100
H852        H  0.89567995  0.16851493  0.28254548     0.27700
H853        H  0.93608529  0.23343378  0.52913588     0.40600
H854        H  0.77952642  0.20596120  0.58406142     0.30600
H855        H  0.78882482  0.24599177  0.47048741     0.38300
H856        H  0.89568302  0.06801821  0.40849567     0.30100
H857        H  0.81448271  0.11732678  0.59471221     0.30200
H858        H  0.76675624  0.09459618  0.37347754     0.30400
Zr859      Zr  0.69368737  0.33858815  0.14260134     2.17500
O860        O  0.73117914  0.37453952  0.17163612    -0.51900
O861        O  0.72048847  0.30371991  0.19609184    -0.75100
O862        O  0.67383254  0.36995671  0.20767023    -0.81900
O863        O  0.73865580  0.33286143  0.02663609    -0.83600
O864        O  0.62435181  0.35814981  0.22037411    -0.79300
O865        O  0.73986896  0.35340962  0.09952688    -0.90900
O866        O  0.70348654  0.25586274  0.18394918    -0.76900
O867        O  0.65933977  0.30114397  0.17154369    -0.86400
O868        O  0.70161869  0.29431604  0.09630379    -0.86100
O869        O  0.64378090  0.35969635  0.12937768    -0.72800
O870        O  0.68339767  0.35211944  0.06239472    -0.84900
Zr871      Zr  0.60574155  0.29131545  0.03669001     2.26400
Zr872      Zr  0.60959639  0.32201101  0.16035823     2.06300
Zr873      Zr  0.69023108  0.30716110  0.01695173     2.10000
Zr874      Zr  0.66666728  0.25739168  0.12365343     1.78800
O875        O  0.69839587  0.33684187  0.94624418    -0.93700
O876        O  0.64246554  0.22747707  0.18489524    -0.41600
O877        O  0.65527704  0.26979840  0.04484994    -0.78200
O878        O  0.61695763  0.27682904  0.11555801    -0.96900
O879        O  0.59820786  0.33604594  0.08129938    -0.90200
O880        O  0.64033169  0.32729443  0.00488368    -0.93000
C881        C  0.72009740  0.27505914  0.20497744     1.00700
C882        C  0.75152801  0.34830828  0.05898600     1.13700
C883        C  0.64827064  0.37369210  0.22915188     1.04400
O884        O  0.60636624  0.29412138  0.23365978    -0.95200
O885        O  0.56172454  0.29387199  0.15287736    -0.90900
O886        O  0.56126369  0.27429185  0.07934547    -0.84100
C887        C  0.54984017  0.27779061  0.12018753     1.11100
O888        O  0.65883757  0.41988737  0.06402680    -0.97200
Zr889      Zr  0.63338933  0.37180501  0.04995778     1.88900
O890        O  0.57346547  0.32518047  0.99249825    -0.73800
O891        O  0.56681189  0.35484934  0.17905795    -0.53100
O892        O  0.60190362  0.41205027  0.08182743    -0.97700
O893        O  0.65090591  0.39235327  0.97546401    -0.55000
O894        O  0.58733591  0.37388118  0.00446979    -0.74300
C895        C  0.56973230  0.35372998  0.98731306     0.98000
O896        O  0.57048910  0.25345866  0.00641653    -0.63100
O897        O  0.72949101  0.26995863  0.99985782    -0.57900
O898        O  0.62355300  0.26498990  0.96729165    -0.94600
O899        O  0.67407065  0.27230476  0.95588478    -0.93000
O900        O  0.70737700  0.22608960  0.09270528    -0.93400
O901        O  0.64847867  0.20791297  0.09884230    -0.92200
C902        C  0.64841122  0.26048797  0.94506220     1.16900
H903        H  0.72224031  0.28727934  0.09925284     0.32800
H904        H  0.60440749  0.26042867  0.12661857     0.43700
H905        H  0.63625622  0.33051703  0.97218257     0.37200
H906        H  0.64095748  0.37916477  0.14379541     0.33700
H907        H  0.65876279  0.21446784  0.19756249     0.25500
H908        H  0.57532310  0.37557874  0.18051318     0.31400
H909        H  0.58494481  0.40137514  0.09749268     0.37300
H910        H  0.70377503  0.22556887  0.05861408     0.31800
H911        H  0.73803356  0.27632169  0.96938210     0.30600
H912        H  0.68360703  0.32890671  0.92338561     0.32300
H913        H  0.64280008  0.41324263  0.97455175     0.31300
H914        H  0.63421327  0.21231887  0.07308552     0.35300
H915        H  0.56670795  0.25894095  0.97340231     0.28000
H916        H  0.73264923  0.37072977  0.20562405     0.32300
H917        H  0.67539797  0.41490684  0.08599533     0.35100
H918        H  0.74590071  0.27383466  0.02255455     0.27700
H919        H  0.58178515  0.23410026  0.00536454     0.40600
H920        H  0.62361206  0.30148340  0.25258606     0.30600
H921        H  0.63814772  0.24213412  0.21012647     0.38300
H922        H  0.63918064  0.38156750  0.95122523     0.30100
H923        H  0.55421516  0.35497117  0.15050515     0.30200
H924        H  0.72164104  0.39474459  0.16877225     0.30400
Zr925      Zr  0.09602169  0.54275614  0.15467604     2.17500
O926        O  0.12630986  0.50768533  0.10833307    -0.51900
O927        O  0.05801819  0.51863158  0.10311563    -0.75100
O928        O  0.10974128  0.49638301  0.19864971    -0.81900
O929        O  0.12085326  0.61300879  0.08104942    -0.83600
O930        O  0.09434860  0.50080583  0.27430256    -0.79300
O931        O  0.13293889  0.56422820  0.09772368    -0.90900
O932        O  0.01108850  0.53455201  0.12372821    -0.76900
O933        O  0.05310855  0.53728326  0.20504781    -0.86400
O934        O  0.05940741  0.57869519  0.12798825    -0.86100
O935        O  0.11378788  0.55421406  0.23266077    -0.72800
O936        O  0.11826197  0.59184232  0.16407522    -0.84900
Zr937      Zr  0.05611632  0.63359518  0.26291933     2.26400
Zr938      Zr  0.07005956  0.54948106  0.28226911     2.06300
Zr939      Zr  0.08212400  0.62759425  0.13640301     2.10000
Zr940      Zr  0.01694677  0.57371037  0.17933997     1.78800
O941        O  0.11448657  0.67160097  0.12377250    -0.93700
O942        O  0.98179619  0.53812926  0.21572654    -0.41600
O943        O  0.03887266  0.62255951  0.18586552    -0.78200
O944        O  0.03236436  0.58481901  0.25673139    -0.96900
O945        O  0.09265390  0.59852742  0.29112666    -0.90200
O946        O  0.09908812  0.63975359  0.21332818    -0.93000
C947        C  0.02889252  0.51875430  0.09869723     1.00700
C948        C  0.13755080  0.58950684  0.07579855     1.13700
C949        C  0.10733461  0.48649225  0.24092922     1.04400
O950        O  0.03211995  0.51113775  0.30039677    -0.95200
O951        O  0.04010979  0.56665990  0.34822847    -0.90900
O952        O  0.03426772  0.61727726  0.33699483    -0.84100
C953        C  0.02992862  0.59272945  0.36009031     1.11100
O954        O  0.18335507  0.57845766  0.22684864    -0.97200
Zr955      Zr  0.13522447  0.60384960  0.24080336     1.88900
O956        O  0.09307595  0.66646108  0.29961770    -0.73800
O957        O  0.10039426  0.54026074  0.35182059    -0.53100
O958        O  0.15735423  0.58635132  0.31381834    -0.97700
O959        O  0.17303281  0.63306670  0.19781945    -0.55000
O960        O  0.14075515  0.64900610  0.28783502    -0.74300
C961        C  0.12189920  0.66835025  0.30410449     0.98000
O962        O  0.02236009  0.67058805  0.29928394    -0.63100
O963        O  0.05821013  0.63268374  0.06013308    -0.57900
O964        O  0.03273879  0.67325657  0.21623553    -0.94600
O965        O  0.05100652  0.67258016  0.14179940    -0.93000
O966        O  0.98993069  0.59553742  0.11339310    -0.93400
O967        O  0.96937872  0.59754917  0.20183460    -0.92200
C968        C  0.03459722  0.68374597  0.17446526     1.16900
H969        H  0.05389154  0.57555404  0.09579767     0.32800
H970        H  0.01399849  0.58354021  0.27502855     0.43700
H971        H  0.10680915  0.66022141  0.21355770     0.37200
H972        H  0.12969435  0.54059076  0.24212653     0.33700
H973        H  0.96668450  0.53356901  0.19122143     0.25500
H974        H  0.10195135  0.56019417  0.36739696     0.31400
H975        H  0.15719044  0.56397716  0.31169413     0.37300
H976        H  0.99953827  0.61555457  0.10839218     0.31800
H977        H  0.06666263  0.65167625  0.04704634     0.30600
H978        H  0.11294446  0.67595944  0.08995884     0.32300
H979        H  0.16804617  0.65451482  0.20418507     0.31300
H980        H  0.97551900  0.61571631  0.21968203     0.35300
H981        H  0.00317520  0.65983523  0.30642597     0.28000
H982        H  0.11504167  0.48828643  0.10875766     0.32300
H983        H  0.17790157  0.55965981  0.21008035     0.35100
H984        H  0.06714672  0.61650176  0.04061161     0.27700
H985        H  0.03138822  0.67540554  0.33000644     0.40600
H986        H  0.04055214  0.49988659  0.32730915     0.30600
H987        H  0.99347357  0.51913485  0.21920259     0.38300
H988        H  0.16776097  0.63019481  0.16454204     0.30100
H989        H  0.08713615  0.52810145  0.37258845     0.30200
H990        H  0.14476945  0.50377992  0.12698476     0.30400
Zr991      Zr  0.90161254  0.43015927  0.88963376     2.17500
O992        O  0.87041834  0.47029927  0.92288813    -0.51900
O993        O  0.93748981  0.45210943  0.94680206    -0.75100
O994        O  0.86826523  0.41070076  0.95284885    -0.81900
O995        O  0.90356913  0.47420123  0.77233527    -0.83600
O996        O  0.88173815  0.36212060  0.96768540    -0.79300
O997        O  0.88649306  0.47644681  0.84735256    -0.90900
O998        O  0.98557665  0.43963106  0.92689516    -0.76900
O999        O  0.93904948  0.39548064  0.91651304    -0.86400
O1000       O  0.94533575  0.43839452  0.84159421    -0.86100
O1001       O  0.87953090  0.38070818  0.87612580    -0.72800
O1002       O  0.88703478  0.41967887  0.80987976    -0.84900
Zr1003     Zr  0.94699149  0.34275958  0.78173149     2.26400
Zr1004     Zr  0.91693734  0.34623941  0.90605026     2.06300
Zr1005     Zr  0.93127165  0.42709627  0.76259683     2.10000
Zr1006     Zr  0.98237272  0.40306347  0.86723013     1.78800
O1007       O  0.90178928  0.43513462  0.69190919    -0.93700
O1008       O  0.01215119  0.38225399  0.93132204    -0.41600
O1009       O  0.96866859  0.39219859  0.78912367    -0.78200
O1010       O  0.96223876  0.35355307  0.86041797    -0.96900
O1011       O  0.90261468  0.33464528  0.82720498    -0.90200
O1012       O  0.91077950  0.37729895  0.75089331    -0.93000
C1013       C  0.96645914  0.45296908  0.95292923     1.00700
C1014       C  0.88933076  0.48733561  0.80578506     1.13700
C1015       C  0.86489167  0.38544990  0.97515650     1.04400
O1016       O  0.94283670  0.33855387  0.98009340    -0.95200
O1017       O  0.94498748  0.29849243  0.89820731    -0.90900
O1018       O  0.96431078  0.29857766  0.82442891    -0.84100
C1019       C  0.96117506  0.28702362  0.86521572     1.11100
O1020       O  0.81864537  0.39591410  0.80824000    -0.97200
Zr1021     Zr  0.86668898  0.36975600  0.79720934     1.88900
O1022       O  0.91326314  0.30945677  0.73965739    -0.73800
O1023       O  0.88090713  0.30538698  0.92043681    -0.53100
O1024       O  0.82787157  0.33982305  0.83676771    -0.97700
O1025       O  0.84340996  0.38581589  0.72416764    -0.55000
O1026       O  0.86456513  0.32275149  0.75270977    -0.74300
C1027       C  0.88472050  0.30526553  0.73496932     0.98000
O1028       O  0.98431087  0.31254990  0.73937404    -0.63100
O1029       O  0.96749112  0.46739320  0.74531052    -0.57900
O1030       O  0.97396886  0.36026371  0.71311447    -0.94600
O1031       O  0.96672027  0.41075648  0.70177988    -0.93000
O1032       O  0.01502308  0.44303382  0.83673901    -0.93400
O1033       O  0.03014484  0.38218516  0.83908329    -0.92200
C1034       C  0.97851792  0.38508430  0.69090129     1.16900
H1035       H  0.95253275  0.45891858  0.84448354     0.32800
H1036       H  0.97847732  0.34118105  0.87107537     0.43700
H1037       H  0.90727153  0.37332760  0.71825850     0.37200
H1038       H  0.86003193  0.37784590  0.89061406     0.33700
H1039       H  0.99747628  0.37973245  0.95724091     0.25500
H1040       H  0.86082072  0.31534455  0.92139634     0.31400
H1041       H  0.81792254  0.32800159  0.81178651     0.37300
H1042       H  0.01473188  0.44023722  0.80246041     0.31800
H1043       H  0.96244377  0.47406593  0.71324743     0.30600
H1044       H  0.91696003  0.43955698  0.66730590     0.32300
H1045       H  0.85573137  0.37662702  0.69901949     0.31300
H1046       H  0.02417642  0.36599508  0.81706445     0.35300
H1047       H  0.00202623  0.31053036  0.76030580     0.28000
H1048       H  0.87310176  0.46890511  0.95711745     0.32300
H1049       H  0.82435420  0.41653205  0.81854577     0.35100
H1050       H  0.96159913  0.48462571  0.76540978     0.27700
H1051       H  0.97561351  0.29191820  0.73707452     0.40600
H1052       H  0.92929239  0.32491515  0.99805121     0.30600
H1053       H  0.01731901  0.36131772  0.92206158     0.38300
H1054       H  0.84774624  0.40777986  0.72206318     0.30100
H1055       H  0.88064385  0.29356025  0.89111904     0.30200
H1056       H  0.84916341  0.46419587  0.91714274     0.30400
C1057       C  0.00722772  0.45734956  0.01159850    -0.20900
C1058       C  0.98014092  0.46926728  0.99287994    -0.07500
C1059       C  0.96943945  0.49731993  0.00923160     0.13400
C1060       C  0.98609589  0.51262725  0.04352374    -0.20900
C1061       C  0.01361238  0.50106928  0.06145690    -0.07500
C1062       C  0.02440819  0.47309171  0.04475315     0.13400
C1063       C  0.05384714  0.45961275  0.06134259    -0.24300
H1064       H  0.01552632  0.43570122  0.99923411     0.14700
H1065       H  0.97777501  0.53430965  0.05568672     0.14700
C1066       C  0.94139502  0.51190258  0.98942541    -0.24200
H1067       H  0.05809988  0.43703131  0.04564029     0.04900
H1068       H  0.05340534  0.45685046  0.09985982     0.08200
H1069       H  0.07296613  0.47457077  0.05104006     0.08200
H1070       H  0.92130209  0.49750730  0.99673181     0.08100
H1071       H  0.94402250  0.51497357  0.95114036     0.08100
H1072       H  0.93711937  0.53450605  0.00503278     0.04900
C1073       C  0.83593789  0.35369692  0.03297357    -0.20900
C1074       C  0.83771960  0.38083198  0.00683215    -0.07500
C1075       C  0.81137313  0.39954910  0.00558863     0.13400
C1076       C  0.78406004  0.38932221  0.02613808    -0.20900
C1077       C  0.78198080  0.36096979  0.04786519    -0.07500
C1078       C  0.80847623  0.34347885  0.05282097     0.13400
C1079       C  0.80744033  0.31334109  0.07746690    -0.24300
H1080       H  0.85572202  0.33929437  0.03557739     0.14700
H1081       H  0.76365429  0.40280396  0.02284760     0.14700
C1082       C  0.81085548  0.42958138  0.98072352    -0.24200
H1083       H  0.83009655  0.30244280  0.07863585     0.04900
H1084       H  0.79171236  0.29784404  0.05902846     0.08200
H1085       H  0.79940154  0.31651873  0.11388899     0.08200
H1086       H  0.81449290  0.42611383  0.94278444     0.08100
H1087       H  0.82854858  0.44463415  0.99545682     0.08100
H1088       H  0.78874637  0.44128971  0.98486349     0.04900
C1089       C  0.84380930  0.25216168  0.65026910    -0.20900
C1090       C  0.86529827  0.22887058  0.64595226    -0.07500
C1091       C  0.89066267  0.22874801  0.67593271     0.13400
C1092       C  0.89552956  0.25343499  0.70567433    -0.20900
C1093       C  0.87539744  0.27816130  0.70737603    -0.07500
C1094       C  0.84843102  0.27678570  0.68062140     0.13400
C1095       C  0.82521853  0.30177317  0.68162025    -0.24300
H1096       H  0.82417963  0.25207684  0.62758575     0.14700
H1097       H  0.91562647  0.25345529  0.72739768     0.14700
C1098       C  0.91290671  0.20286425  0.67782827    -0.24200
H1099       H  0.80619451  0.29730266  0.65726222     0.04900
H1100       H  0.83590222  0.32352382  0.67114301     0.08200
H1101       H  0.81545970  0.30378725  0.71722772     0.08200
H1102       H  0.93563726  0.21083735  0.66646881     0.08100
H1103       H  0.90610784  0.18341813  0.65580209     0.08100
H1104       H  0.91447856  0.19436263  0.71425893     0.04900
C1105       C  0.75499301  0.23487121  0.23012196    -0.20900
C1106       C  0.73948998  0.26171687  0.24170500    -0.07500
C1107       C  0.73764170  0.27040551  0.28910048     0.13400
C1108       C  0.75087828  0.25180315  0.32324447    -0.20900
C1109       C  0.76549428  0.22444784  0.31176528    -0.07500
C1110       C  0.76776855  0.21606194  0.26438722     0.13400
C1111       C  0.78403516  0.18765432  0.24958338    -0.24300
H1112       H  0.75617252  0.22801683  0.19382714     0.14700
H1113       H  0.74971749  0.25875506  0.35950008     0.14700
C1114       C  0.72100489  0.29822143  0.30563460    -0.24200
H1115       H  0.78435096  0.18507584  0.21102454     0.04900
H1116       H  0.77240015  0.16754457  0.26454830     0.08200
H1117       H  0.80788077  0.18827635  0.26182955     0.08200
H1118       H  0.70228407  0.29134294  0.32937568     0.08100
H1119       H  0.71102034  0.31181580  0.27718444     0.08100
H1120       H  0.73687535  0.31305021  0.32512681     0.04900
C1121       C  0.49264303  0.35753677  0.92865280    -0.20900
C1122       C  0.49735095  0.38108211  0.89664822    -0.07500
C1123       C  0.52470428  0.39772672  0.89786186     0.13400
C1124       C  0.54750815  0.38904712  0.92922640    -0.20900
C1125       C  0.54366346  0.36399070  0.95897900    -0.07500
C1126       C  0.51529332  0.34888732  0.96013488     0.13400
C1127       C  0.50847259  0.32381745  0.99449630    -0.24300
H1128       H  0.47147880  0.34504138  0.92767410     0.14700
H1129       H  0.56899546  0.40098449  0.92890718     0.14700
C1130       C  0.53062301  0.42345969  0.86443704    -0.24200
H1131       H  0.48429264  0.31682427  0.99318370     0.04900
H1132       H  0.51328953  0.33162281  0.03055120     0.08200
H1133       H  0.52227656  0.30351605  0.98646798     0.08200
H1134       H  0.51358359  0.44155336  0.87003733     0.08100
H1135       H  0.52928187  0.41524206  0.82790247     0.08100
H1136       H  0.55343663  0.43355313  0.86963244     0.04900
C1137       C  0.61429487  0.43114836  0.31455441    -0.20900
C1138       C  0.62621457  0.45805766  0.29584277    -0.07500
C1139       C  0.64923108  0.45628453  0.26164158     0.13400
C1140       C  0.65862750  0.42786102  0.24506253    -0.20900
C1141       C  0.64443480  0.40092217  0.25972776    -0.07500
C1142       C  0.62269639  0.40259306  0.29643370     0.13400
C1143       C  0.60777787  0.37458825  0.31611106    -0.24300
H1144       H  0.59680307  0.43256980  0.34110560     0.14700
H1145       H  0.67525154  0.42701526  0.21718306     0.14700
C1146       C  0.66303831  0.48455929  0.24100932    -0.24200
H1147       H  0.59355901  0.37993099  0.34707325     0.04900
H1148       H  0.62535429  0.35810079  0.32709805     0.08200
H1149       H  0.59270839  0.36406312  0.28981711     0.08200
H1150       H  0.67315531  0.49851152  0.26915658     0.08100
H1151       H  0.64541272  0.49795672  0.22273868     0.08100
H1152       H  0.68110545  0.47922295  0.21525922     0.04900
C1153       C  0.51516738  0.48784434  0.56871215    -0.20900
C1154       C  0.48589458  0.47621954  0.55996144    -0.07500
C1155       C  0.47471743  0.47681039  0.51388721     0.13400
C1156       C  0.49246836  0.48999855  0.47853543    -0.20900
C1157       C  0.52143606  0.50228155  0.48749946    -0.07500
C1158       C  0.53314790  0.50055051  0.53315042     0.13400
C1159       C  0.56415283  0.51259613  0.54494011    -0.24300
H1160       H  0.52424590  0.48665007  0.60379695     0.14700
H1161       H  0.48346820  0.49099714  0.44338337     0.14700
C1162       C  0.44475088  0.46260750  0.50126300    -0.24200
H1163       H  0.56942976  0.50977201  0.58258688     0.04900
H1164       H  0.56547615  0.53710492  0.53649306     0.08200
H1165       H  0.58162317  0.50012642  0.52473039     0.08200
H1166       H  0.42606262  0.47432303  0.51985921     0.08100
H1167       H  0.44481616  0.43824031  0.51093873     0.08100
H1168       H  0.44015153  0.46421927  0.46323547     0.04900
C1169       C  0.49638101  0.21181878  0.13903013    -0.20900
C1170       C  0.46875858  0.22490124  0.12584478    -0.07500
C1171       C  0.46745910  0.25659148  0.11748774     0.13400
C1172       C  0.49408988  0.27388568  0.11938198    -0.20900
C1173       C  0.52193107  0.26048438  0.12968088    -0.07500
C1174       C  0.52310650  0.22923388  0.14044493     0.13400
C1175       C  0.55283165  0.21404122  0.15122191    -0.24300
H1176       H  0.49741641  0.18762076  0.14525121     0.14700
H1177       H  0.49330853  0.29779180  0.11070501     0.14700
C1178       C  0.43855494  0.27303751  0.10566752    -0.24200
H1179       H  0.54977801  0.18961795  0.15929589     0.04900
H1180       H  0.56348628  0.22506026  0.18188688     0.08200
H1181       H  0.56829759  0.21593315  0.12072088     0.08200
H1182       H  0.41825642  0.25851595  0.10788180     0.08100
H1183       H  0.43513752  0.29197337  0.13056568     0.08100
H1184       H  0.44014525  0.28239736  0.06974253     0.04900
C1185       C  0.34767069  0.29315307  0.87616476    -0.20900
C1186       C  0.36817811  0.28654818  0.84008341    -0.07500
C1187       C  0.37732765  0.25625098  0.83262448     0.13400
C1188       C  0.36724645  0.23367605  0.86336205    -0.20900
C1189       C  0.34830464  0.24061204  0.90113338    -0.07500
C1190       C  0.33781290  0.27057254  0.90715053     0.13400
C1191       C  0.31764064  0.27981120  0.94719575    -0.24300
H1192       H  0.34042405  0.31634263  0.88160908     0.14700
H1193       H  0.37545502  0.21068616  0.85938012     0.14700
C1194       C  0.39756357  0.24748661  0.79235166    -0.24200
H1195       H  0.29663368  0.29026941  0.93330925     0.04900
H1196       H  0.32961185  0.29664852  0.96923839     0.08200
H1197       H  0.31090468  0.26050522  0.96967981     0.08200
H1198       H  0.42034894  0.25769082  0.79648523     0.08100
H1199       H  0.38736521  0.25526791  0.75903796     0.08100
H1200       H  0.40064807  0.22257175  0.79021864     0.04900
C1201       C  0.98297253  0.23628300  0.38301712    -0.20900
C1202       C  0.98294128  0.20976816  0.41002399    -0.07500
C1203       C  0.00895490  0.20158237  0.43542757     0.13400
C1204       C  0.03381744  0.22110904  0.43561570    -0.20900
C1205       C  0.03306113  0.24905251  0.41209633    -0.07500
C1206       C  0.00774431  0.25633106  0.38403806     0.13400
C1207       C  0.00572424  0.28590071  0.35796155    -0.24300
H1208       H  0.96268320  0.24239850  0.36394046     0.14700
H1209       H  0.05355582  0.21509723  0.45611211     0.14700
C1210       C  0.01018491  0.17270675  0.46354963    -0.24200
H1211       H  0.98375738  0.28822956  0.33943837     0.04900
H1212       H  0.02407419  0.28726768  0.33147759     0.08200
H1213       H  0.00781989  0.30508206  0.38274938     0.08200
H1214       H  0.00619985  0.15300610  0.44034989     0.08100
H1215       H  0.99263174  0.17308763  0.49128948     0.08100
H1216       H  0.03252350  0.16964310  0.48073075     0.04900
C1217       C  0.28033272  0.38049984  0.54545958    -0.20900
C1218       C  0.28224117  0.36170491  0.50610557    -0.07500
C1219       C  0.31099450  0.35562783  0.48661856     0.13400
C1220       C  0.33718387  0.36727221  0.50850242    -0.20900
C1221       C  0.33537251  0.38489940  0.54950728    -0.07500
C1222       C  0.30629139  0.39216304  0.56736463     0.13400
C1223       C  0.30223760  0.41037827  0.61139629    -0.24300
H1224       H  0.25819651  0.38509901  0.56037118     0.14700
H1225       H  0.35931361  0.36131221  0.49483203     0.14700
C1226       C  0.31418882  0.33542258  0.44465683    -0.24200
H1227       H  0.27796516  0.41296249  0.62095601     0.04900
H1228       H  0.31180542  0.43341380  0.60644817     0.08200
H1229       H  0.31374748  0.39892530  0.64092680     0.08200
H1230       H  0.30183087  0.34540301  0.41465891     0.08100
H1231       H  0.30466510  0.31269752  0.45260003     0.08100
H1232       H  0.33829420  0.33256899  0.43428719     0.04900
C1233       C  0.23782797  0.23736209  0.22575141    -0.20900
C1234       C  0.26124361  0.21699142  0.23621378    -0.07500
C1235       C  0.27411655  0.21720761  0.28136303     0.13400
C1236       C  0.26253234  0.23715263  0.31510546    -0.20900
C1237       C  0.23918210  0.25761990  0.30448027    -0.07500
C1238       C  0.22671699  0.25770409  0.25908106     0.13400
C1239       C  0.20132660  0.27849322  0.24461456    -0.24300
H1240       H  0.22883071  0.23813827  0.19055205     0.14700
H1241       H  0.27148282  0.23640848  0.35031538     0.14700
C1242       C  0.30071863  0.19762599  0.29471779    -0.24200
H1243       H  0.20872270  0.29229532  0.21419738     0.04900
H1244       H  0.19433963  0.29434832  0.27245147     0.08200
H1245       H  0.18127246  0.26483124  0.23441110     0.08200
H1246       H  0.32019902  0.21226648  0.30432985     0.08100
H1247       H  0.30823983  0.18234973  0.26638298     0.08100
H1248       H  0.29451433  0.18335489  0.32523284     0.04900
C1249       C  0.01878159  0.35637480  0.58340951    -0.20900
C1250       C  0.04777773  0.36902473  0.58915953    -0.07500
C1251       C  0.05239892  0.39053279  0.62516044     0.13400
C1252       C  0.02847808  0.39729503  0.65604243    -0.20900
C1253       C  0.00009082  0.38333682  0.65155190    -0.07500
C1254       C  0.99482886  0.36359043  0.61376921     0.13400
C1255       C  0.96381807  0.35034783  0.60531749    -0.24300
H1256       H  0.01493758  0.34045995  0.55527198     0.14700
H1257       H  0.03241903  0.41226720  0.68536278     0.14700
C1258       C  0.08286762  0.40504141  0.63308618    -0.24200
H1259       H  0.96336527  0.33614878  0.57337523     0.04900
H1260       H  0.94717199  0.36896692  0.60078388     0.09800
H1261       H  0.95676243  0.33595736  0.63521499     0.08200
H1262       H  0.08926734  0.41901639  0.60236359     0.08100
H1263       H  0.10020963  0.38726423  0.63898613     0.08100
H1264       H  0.08269614  0.42013110  0.66405677     0.04900
C1265       C  0.12231597  0.40271882  0.26063084    -0.20900
C1266       C  0.14494308  0.40376177  0.29548455    -0.07500
C1267       C  0.15754359  0.43235504  0.30711656     0.13400
C1268       C  0.14571801  0.45874771  0.28655501    -0.20900
C1269       C  0.12205635  0.45760658  0.25403351    -0.07500
C1270       C  0.11078524  0.42925712  0.23984694     0.13400
C1271       C  0.08549138  0.42715242  0.20479082    -0.24300
H1272       H  0.11249174  0.38108394  0.25117721     0.14700
H1273       H  0.15426135  0.48069663  0.29723650     0.14700
C1274       C  0.18231244  0.43573928  0.34284565    -0.24200
H1275       H  0.07891099  0.40328741  0.19798844     0.04900
H1276       H  0.09283604  0.43747778  0.17124408     0.08200
H1277       H  0.06523268  0.43937364  0.21798710     0.08200
H1278       H  0.20275602  0.42327522  0.33107087     0.08100
H1279       H  0.17455558  0.42694657  0.37717317     0.08100
H1280       H  0.18896408  0.45978230  0.34777586     0.04900
C1281       C  0.22042609  0.59230302  0.03829815    -0.20900
C1282       C  0.21996261  0.61627970  0.00618886    -0.07500
C1283       C  0.19180292  0.62749818  0.99074405     0.13400
C1284       C  0.16489583  0.61642065  0.01127388    -0.20900
C1285       C  0.16534128  0.59387255  0.04633002    -0.07500
C1286       C  0.19360598  0.58060180  0.05799915     0.13400
C1287       C  0.19616103  0.55524295  0.09295004    -0.24300
H1288       H  0.24214768  0.58334066  0.04925190     0.14700
H1289       H  0.14343834  0.62646104  0.00138237     0.14700
C1290       C  0.19018982  0.65205562  0.95429872    -0.24200
H1291       H  0.22000398  0.54785196  0.09775497     0.04900
H1292       H  0.18304997  0.53537314  0.08059043     0.08200
H1293       H  0.18750668  0.56277588  0.12735675     0.08200
H1294       H  0.20071879  0.64396125  0.92137134     0.08100
H1295       H  0.20245479  0.67249560  0.96657163     0.08100
H1296       H  0.16640133  0.65856824  0.94663366     0.04900
C1297       C  0.45410210  0.58549438  0.11466254    -0.20900
C1298       C  0.45928231  0.60939478  0.08315746    -0.07500
C1299       C  0.48850994  0.62275894  0.08094682     0.13400
C1300       C  0.51080923  0.61342187  0.11266231    -0.20900
C1301       C  0.50474564  0.59127961  0.14658919    -0.07500
C1302       C  0.47634020  0.57654131  0.14683345     0.13400
C1303       C  0.46859473  0.55304663  0.18317405    -0.24300
H1304       H  0.43188004  0.57503783  0.11614461     0.14700
H1305       H  0.53269197  0.62464263  0.11269939     0.14700
C1306       C  0.49652739  0.64689035  0.04562324    -0.24200
H1307       H  0.44509763  0.54441804  0.17903541     0.04900
H1308       H  0.47054789  0.56301511  0.21860136     0.08200
H1309       H  0.48430503  0.53354696  0.18007947     0.08200
H1310       H  0.48381801  0.66797167  0.05297248     0.08100
H1311       H  0.49121927  0.63879799  0.00989615     0.08100
H1312       H  0.52102975  0.65269428  0.04663684     0.04900
C1313       C  0.35835483  0.51825927  0.79471373    -0.20900
C1314       C  0.37956455  0.51981049  0.75823140    -0.07500
C1315       C  0.38810929  0.54833507  0.74043877     0.13400
C1316       C  0.37608005  0.57472980  0.76087966    -0.20900
C1317       C  0.35614657  0.57335142  0.79946080    -0.07500
C1318       C  0.34666045  0.54448704  0.81575175     0.13400
C1319       C  0.32611230  0.54083623  0.85750013    -0.24300
H1320       H  0.35197510  0.49620913  0.80831320     0.14700
H1321       H  0.38373688  0.59664480  0.74844514     0.14700
C1322       C  0.41148116  0.55096794  0.70226024    -0.24200
H1323       H  0.32211154  0.51664506  0.86627722     0.04900
H1324       H  0.30377450  0.55127008  0.85015157     0.08200
H1325       H  0.33653906  0.55170033  0.88842037     0.08200
H1326       H  0.40322539  0.53943484  0.67033941     0.08100
H1327       H  0.43298937  0.54026060  0.71370444     0.08100
H1328       H  0.41632820  0.57497457  0.69331174     0.04900
C1329       C  0.12992056  0.74664171  0.35653754    -0.20900
C1330       C  0.15158969  0.74113155  0.39117553    -0.07500
C1331       C  0.16679586  0.71303421  0.39236901     0.13400
C1332       C  0.15764390  0.68993254  0.36191896    -0.20900
C1333       C  0.13391270  0.69454304  0.33015775    -0.07500
C1334       C  0.12125389  0.72383688  0.32533999     0.13400
C1335       C  0.09881915  0.73130746  0.28733213    -0.24300
H1336       H  0.11876402  0.76849102  0.35529202     0.14700
H1337       H  0.16797946  0.66774485  0.36460607     0.14700
C1338       C  0.19139700  0.70681520  0.42748350    -0.24200
H1339       H  0.09400845  0.75596788  0.28578331     0.04900
H1340       H  0.07697156  0.71954430  0.29364898     0.08200
H1341       H  0.10815735  0.72445152  0.25289088     0.08200
H1342       H  0.18242080  0.70957198  0.46347040     0.08100
H1343       H  0.21047092  0.72284374  0.42185714     0.08100
H1344       H  0.20043198  0.68345680  0.42417285     0.04900
C1345       C  0.25199621  0.75285567  0.81790470    -0.20900
C1346       C  0.26232513  0.72282874  0.81168401    -0.07500
C1347       C  0.26030148  0.70973993  0.76687987     0.13400
C1348       C  0.24835051  0.72688092  0.72999767    -0.20900
C1349       C  0.23782422  0.75677323  0.73623250    -0.07500
C1350       C  0.23969496  0.76988667  0.78097761     0.13400
C1351       C  0.22792776  0.80130466  0.79047317    -0.24300
H1352       H  0.25371718  0.76321772  0.85206609     0.14700
H1353       H  0.24684202  0.71657993  0.69576016     0.14700
C1354       C  0.27138867  0.67809483  0.75704893    -0.24200
H1355       H  0.23040836  0.80760731  0.82777795     0.04900
H1356       H  0.20348237  0.80258397  0.78153630     0.08200
H1357       H  0.24079116  0.81807813  0.76936024     0.08200
H1358       H  0.25820115  0.66152318  0.77807803     0.08100
H1359       H  0.29584324  0.67626340  0.76565254     0.08100
H1360       H  0.26863278  0.67190385  0.71974243     0.04900
C1361       C  0.03029117  0.73841263  0.16146574    -0.20900
C1362       C  0.01599518  0.71016296  0.16371337    -0.07500
C1363       C  0.98403591  0.70819313  0.16198604     0.13400
C1364       C  0.96697754  0.73486766  0.16142481    -0.20900
C1365       C  0.98127942  0.76311163  0.16286402    -0.07500
C1366       C  0.01319900  0.76507748  0.16151212     0.13400
C1367       C  0.02915967  0.79525941  0.16162463    -0.24300
H1368       H  0.05483012  0.73961867  0.16256911     0.14700
H1369       H  0.94242885  0.73359723  0.16236850     0.14700
C1370       C  0.96732017  0.67842015  0.16177682    -0.24200
H1371       H  0.05417946  0.79263581  0.16020275     0.04900
H1372       H  0.02344833  0.80786063  0.19392470     0.08200
H1373       H  0.02200318  0.80867799  0.13077767     0.08200
H1374       H  0.95283407  0.67666618  0.19341855     0.08100
H1375       H  0.98276009  0.65867816  0.16099832     0.08100
H1376       H  0.95270237  0.67716725  0.13034091     0.04900
C1377       C  0.85846039  0.01619240  0.28980044    -0.20900
C1378       C  0.87796583  0.01705192  0.25102170    -0.07500
C1379       C  0.88498101  0.04537903  0.23077282     0.13400
C1380       C  0.87445723  0.07220913  0.25228718    -0.20900
C1381       C  0.85623320  0.07144043  0.29290761    -0.07500
C1382       C  0.84713245  0.04277747  0.31044715     0.13400
C1383       C  0.82702623  0.03982758  0.35277195    -0.24300
H1384       H  0.85279700  0.99440262  0.30503195     0.14700
H1385       H  0.88153748  0.09395120  0.23841043     0.14700
C1386       C  0.90478410  0.04734900  0.18802034    -0.24200
H1387       H  0.82304457  0.01579954  0.36253983     0.04900
H1388       H  0.80465296  0.05027694  0.34557223     0.08200
H1389       H  0.83778373  0.05119877  0.38289984     0.08200
H1390       H  0.89375370  0.03527118  0.15865559     0.08100
H1391       H  0.92714720  0.03684025  0.19517236     0.08100
H1392       H  0.90862373  0.07119118  0.17709779     0.04900
C1393       C  0.99443536  0.85497563  0.42199403    -0.20900
C1394       C  0.99738067  0.87967855  0.39152003    -0.07500
C1395       C  0.02389021  0.89768401  0.39353923     0.13400
C1396       C  0.04759100  0.88924152  0.42375658    -0.20900
C1397       C  0.04550914  0.86317213  0.45188676    -0.07500
C1398       C  0.01785917  0.84666153  0.45248372     0.13400
C1399       C  0.01248582  0.82043598  0.48538955    -0.24300
H1400       H  0.97398040  0.84137379  0.42066541     0.14700
H1401       H  0.06843522  0.90225498  0.42371100     0.14700
C1402       C  0.02804984  0.92471520  0.36198679    -0.24200
H1403       H  0.98870859  0.81219345  0.48374705     0.04900
H1404       H  0.01695540  0.82762713  0.52185608     0.08200
H1405       H  0.02726576  0.80105932  0.47617817     0.08200
H1406       H  0.01023665  0.94176655  0.36946640     0.08100
H1407       H  0.02654254  0.91761882  0.32491602     0.08100
H1408       H  0.05043180  0.93571659  0.36721192     0.04900
C1409       C  0.02999400  0.23716598  0.87979479    -0.20900
C1410       C  0.01743959  0.20860363  0.87159817    -0.07500
C1411       C  0.98557684  0.20553435  0.86718488     0.13400
C1412       C  0.96711037  0.23138013  0.86928066    -0.20900
C1413       C  0.97987708  0.26014289  0.87462657    -0.07500
C1414       C  0.01160282  0.26308757  0.88041469     0.13400
C1415       C  0.02621476  0.29375542  0.88523767    -0.24300
H1416       H  0.05438824  0.23940887  0.88266265     0.14700
H1417       H  0.94287070  0.22933900  0.86398627     0.14700
C1418       C  0.97103558  0.17508471  0.85915543    -0.24200
H1419       H  0.02207655  0.30744550  0.85335717     0.04900
H1420       H  0.05112097  0.29201211  0.89001518     0.08200
H1421       H  0.01658340  0.30552842  0.91605766     0.08200
H1422       H  0.97704601  0.15944717  0.88805695     0.08100
H1423       H  0.97887412  0.16546894  0.82551290     0.08100
H1424       H  0.94593885  0.17672158  0.85769941     0.04900
C1425       C  0.97770592  0.07631653  0.64940319    -0.20900
C1426       C  0.00574720  0.09098526  0.64485119    -0.07500
C1427       C  0.01082559  0.11103338  0.60725954     0.13400
C1428       C  0.98729289  0.11668362  0.57580051    -0.20900
C1429       C  0.95852405  0.10363246  0.58195148    -0.07500
C1430       C  0.95375523  0.08277838  0.61880458     0.13400
C1431       C  0.92301636  0.06915196  0.62830016    -0.24300
H1432       H  0.97389501  0.06141469  0.67897761     0.14700
H1433       H  0.99096824  0.13243676  0.54733853     0.14700
C1434       C  0.04079352  0.12700113  0.60086145    -0.24200
H1435       H  0.92306135  0.05478177  0.66016288     0.04900
H1436       H  0.91603391  0.05472580  0.59854015     0.08200
H1437       H  0.90612985  0.08746011  0.63359898     0.08200
H1438       H  0.05928800  0.11006113  0.59831273     0.08100
H1439       H  0.04521704  0.14225989  0.63080621     0.08100
H1440       H  0.04115012  0.14101142  0.56861161     0.04900
C1441       C  0.12044229  0.93060243  0.80249408    -0.20900
C1442       C  0.13126788  0.95760810  0.78257151    -0.07500
C1443       C  0.15326045  0.95597228  0.74666007     0.13400
C1444       C  0.16181505  0.92756880  0.72882544    -0.20900
C1445       C  0.14869828  0.90053436  0.74542746    -0.07500
C1446       C  0.12879557  0.90208637  0.78432318     0.13400
C1447       C  0.11633561  0.87384893  0.80690029    -0.24300
H1448       H  0.10401923  0.93185539  0.83062484     0.14700
H1449       H  0.17734842  0.92670567  0.69947562     0.14700
C1450       C  0.16759185  0.98422199  0.72674552    -0.24200
H1451       H  0.10303837  0.87918777  0.83881078     0.04900
H1452       H  0.13531090  0.85876125  0.81715476     0.08200
H1453       H  0.10105502  0.86171945  0.78262609     0.08200
H1454       H  0.17861852  0.99724354  0.75515819     0.08100
H1455       H  0.15022369  0.99857511  0.70969657     0.08100
H1456       H  0.18514271  0.97881346  0.70017676     0.04900
C1457       C  0.99415578  0.98157557  0.97097543    -0.20900
C1458       C  0.02068235  0.99809958  0.98090256    -0.07500
C1459       C  0.02968646  0.00153698  0.02784014     0.13400
C1460       C  0.01206722  0.98824724  0.06344200    -0.20900
C1461       C  0.98532153  0.97204170  0.05347714    -0.07500
C1462       C  0.97649672  0.96841912  0.00651859     0.13400
C1463       C  0.94915021  0.94978056  0.99358273    -0.24300
H1464       H  0.98702605  0.97922210  0.93497048     0.14700
H1465       H  0.01926069  0.99040813  0.09944226     0.14700
C1466       C  0.05711402  0.02009191  0.04064453    -0.24200
H1467       H  0.92841823  0.95998231  0.00888411     0.04900
H1468       H  0.95181398  0.92629168  0.00685831     0.08200
H1469       H  0.94602921  0.94861863  0.95517160     0.08200
H1470       H  0.06041281  0.02107659  0.07903206     0.08100
H1471       H  0.05442161  0.04363832  0.02761653     0.08100
H1472       H  0.07776102  0.00993827  0.02498564     0.04900
C1473       C  0.11500432  0.22124394  0.70914706    -0.20900
C1474       C  0.13259028  0.19473357  0.70644310    -0.07500
C1475       C  0.15822452  0.19447170  0.67639005     0.13400
C1476       C  0.16368109  0.21948273  0.64701922    -0.20900
C1477       C  0.14440609  0.24471930  0.64706331    -0.07500
C1478       C  0.12053202  0.24614691  0.67986927     0.13400
C1479       C  0.10080695  0.27387597  0.68411431    -0.24300
H1480       H  0.09611289  0.22215630  0.73337558     0.14700
H1481       H  0.18200940  0.21853395  0.62177207     0.14700
C1482       C  0.17907197  0.16755116  0.67305817    -0.24200
H1483       H  0.08446111  0.27182071  0.71351269     0.04900
H1484       H  0.08752395  0.27737878  0.65180646     0.08200
H1485       H  0.11520198  0.29407613  0.69051751     0.08200
H1486       H  0.16601616  0.14712580  0.66286520     0.08100
H1487       H  0.19032293  0.16368256  0.70716003     0.08100
H1488       H  0.19718141  0.17106494  0.64657463     0.04900
C1489       C  0.18920391  0.07627528  0.98473161    -0.20900
C1490       C  0.16176080  0.08862294  0.00099324    -0.07500
C1491       C  0.16263547  0.10855450  0.03978723     0.13400
C1492       C  0.19090402  0.11795295  0.05775462    -0.20900
C1493       C  0.21821719  0.10818058  0.03758723    -0.07500
C1494       C  0.21730692  0.08598129  0.00218873     0.13400
C1495       C  0.24605250  0.07290949  0.98202599    -0.24300
H1496       H  0.18889974  0.06071763  0.95551809     0.14700
H1497       H  0.19167128  0.13438611  0.08577989     0.14700
C1498       C  0.13398530  0.11999080  0.06239358    -0.24200
H1499       H  0.24125386  0.05494231  0.95598930     0.04900
H1500       H  0.25985254  0.06278142  0.01039591     0.08200
H1501       H  0.25940994  0.09083932  0.96425047     0.08200
H1502       H  0.11962960  0.10049946  0.07312220     0.08100
H1503       H  0.12118420  0.13468946  0.03806159     0.08100
H1504       H  0.13893762  0.13362194  0.09402032     0.04900
C1505       C  0.97928063  0.74128820  0.64429753    -0.20900
C1506       C  0.98202944  0.71198997  0.62564984    -0.07500
C1507       C  0.00957574  0.70281695  0.60546131     0.13400
C1508       C  0.03342620  0.72357767  0.60232593    -0.20900
C1509       C  0.03026794  0.75349374  0.61839215    -0.07500
C1510       C  0.00320998  0.76229354  0.64083487     0.13400
C1511       C  0.99879885  0.79418748  0.65798391    -0.24300
H1512       H  0.95768959  0.74834869  0.65875781     0.14700
H1513       H  0.05445305  0.71667614  0.58580633     0.14700
C1514       C  0.01336022  0.67142421  0.58580760    -0.24200
H1515       H  0.97575799  0.79755442  0.67277248     0.04900
H1516       H  0.00186509  0.81036639  0.62860754     0.08200
H1517       H  0.01552763  0.79931709  0.68573430     0.08200
H1518       H  0.99657767  0.66758093  0.55770527     0.08100
H1519       H  0.00974136  0.65442984  0.61389201     0.08100
H1520       H  0.03634892  0.66796014  0.57086425     0.04900
C1521       C  0.66824147  0.62495132  0.52683201    -0.20900
C1522       C  0.66631701  0.59738414  0.50193778    -0.07500
C1523       C  0.69208351  0.57792759  0.50304438     0.13400
C1524       C  0.71905480  0.58760517  0.52507064    -0.20900
C1525       C  0.72119583  0.61595065  0.54673026    -0.07500
C1526       C  0.69515886  0.63433181  0.54898814     0.13400
C1527       C  0.69610900  0.66435917  0.57380334    -0.24300
H1528       H  0.64891937  0.64005925  0.52743055     0.14700
H1529       H  0.73916815  0.57357366  0.52331137     0.14700
C1530       C  0.69225657  0.54751630  0.47951813    -0.24200
H1531       H  0.67390679  0.67614032  0.57244192     0.04900
H1532       H  0.71337267  0.67930860  0.55741393     0.08200
H1533       H  0.70206297  0.66070164  0.61103221     0.08200
H1534       H  0.68924317  0.55043306  0.44133944     0.08100
H1535       H  0.67394334  0.53317317  0.49437935     0.08100
H1536       H  0.71398370  0.53534093  0.48491622     0.04900
C1537       C  0.87480184  0.76985411  0.42853049    -0.20900
C1538       C  0.85542600  0.74573219  0.41710057    -0.07500
C1539       C  0.84043319  0.74598267  0.37344665     0.13400
C1540       C  0.84737816  0.76903774  0.34095110    -0.20900
C1541       C  0.86851281  0.79179032  0.35166061    -0.07500
C1542       C  0.88145379  0.79283125  0.39659339     0.13400
C1543       C  0.90218524  0.81831768  0.41124451    -0.24300
H1544       H  0.88540661  0.77042508  0.46262601     0.14700
H1545       H  0.83718605  0.76869458  0.30657107     0.14700
C1546       C  0.81812234  0.72163987  0.36031646    -0.24200
H1547       H  0.90897387  0.81628162  0.44842904     0.04900
H1548       H  0.89041042  0.84033677  0.40676059     0.08200
H1549       H  0.92321176  0.81822473  0.38998195     0.08200
H1550       H  0.79844191  0.72218838  0.38452936     0.08100
H1551       H  0.82915370  0.69909273  0.36213445     0.08100
H1552       H  0.80939744  0.72487676  0.32431673     0.04900
C1553       C  0.98570722  0.62377015  0.46160777    -0.20900
C1554       C  0.95850049  0.60737664  0.45748640    -0.07500
C1555       C  0.95736425  0.58235643  0.42664246     0.13400
C1556       C  0.98237558  0.57649867  0.39761068    -0.20900
C1557       C  0.00854924  0.59452645  0.39943456    -0.07500
C1558       C  0.01088547  0.61734623  0.43350294     0.13400
C1559       C  0.03997965  0.63465051  0.44063370    -0.24300
H1560       H  0.98711651  0.64214253  0.48644837     0.14700
H1561       H  0.98082244  0.55886593  0.37142845     0.14700
C1562       C  0.92960176  0.56266662  0.42227598    -0.24200
H1563       H  0.03835411  0.65036281  0.47077221     0.04900
H1564       H  0.04559697  0.64827774  0.40925003     0.08200
H1565       H  0.05869878  0.61849660  0.44768813     0.08200
H1566       H  0.90977117  0.57668915  0.41240527     0.08100
H1567       H  0.92508153  0.55096643  0.45591080     0.08100
H1568       H  0.93253604  0.54492973  0.39519822     0.04900
C1569       C  0.88833284  0.54370246  0.81244278    -0.20900
C1570       C  0.87532337  0.51711654  0.79472642    -0.07500
C1571       C  0.85152787  0.51951396  0.76205997     0.13400
C1572       C  0.84282135  0.54819322  0.74535494    -0.20900
C1573       C  0.85808746  0.57476011  0.75893788    -0.07500
C1574       C  0.88037921  0.57246706  0.79461181     0.13400
C1575       C  0.89636025  0.59998940  0.81362524    -0.24300
H1576       H  0.90627638  0.54181366  0.83805985     0.14700
H1577       H  0.82564030  0.54947036  0.71846210     0.14700
C1578       C  0.83585555  0.49165946  0.74366606    -0.24200
H1579       H  0.91069396  0.59420110  0.84418963     0.04900
H1580       H  0.87942483  0.61701341  0.82507637     0.08200
H1581       H  0.91153160  0.61001681  0.78682908     0.08200
H1582       H  0.82597689  0.47858406  0.77315893     0.08100
H1583       H  0.85227927  0.47720287  0.72461625     0.08100
H1584       H  0.81725267  0.49751447  0.71921848     0.04900
C1585       C  0.49799121  0.77183932  0.91263998    -0.20900
C1586       C  0.52607024  0.75750013  0.90812062    -0.07500
C1587       C  0.52757208  0.72575030  0.90240851     0.13400
C1588       C  0.50071284  0.70885981  0.90327877    -0.20900
C1589       C  0.47281747  0.72304457  0.91098067    -0.07500
C1590       C  0.47120650  0.75490038  0.91434784     0.13400
C1591       C  0.44132228  0.77097645  0.92039698    -0.24300
H1592       H  0.49718443  0.79617846  0.91744380     0.14700
H1593       H  0.50173969  0.68437648  0.90080681     0.14700
C1594       C  0.55712050  0.70898118  0.89720951    -0.24200
H1595       H  0.44424766  0.79594921  0.92140280     0.04900
H1596       H  0.43031317  0.76396769  0.95354640     0.08200
H1597       H  0.42617183  0.76540355  0.89074555     0.08200
H1598       H  0.55994100  0.69302462  0.92689300     0.08100
H1599       H  0.57702580  0.72429191  0.89622097     0.08100
H1600       H  0.55695206  0.69591236  0.86414754     0.04900
C1601       C  0.61915431  0.74696170  0.17163217    -0.20900
C1602       C  0.64309130  0.74355253  0.13985844    -0.07500
C1603       C  0.66145550  0.71730021  0.14256802     0.13400
C1604       C  0.65331065  0.69383150  0.17359133    -0.20900
C1605       C  0.62758540  0.69616490  0.20242642    -0.07500
C1606       C  0.61154808  0.72398873  0.20352096     0.13400
C1607       C  0.58678760  0.73004681  0.23873588    -0.24300
H1608       H  0.60571878  0.76748971  0.17053498     0.14700
H1609       H  0.66632802  0.67303260  0.17382031     0.14700
C1610       C  0.68872576  0.71321719  0.11143314    -0.24200
H1611       H  0.57908681  0.75397477  0.23745718     0.04900
H1612       H  0.59534740  0.72558015  0.27451937     0.08200
H1613       H  0.56673080  0.71563645  0.23175352     0.08200
H1614       H  0.70548473  0.73140869  0.11841993     0.08100
H1615       H  0.68181638  0.71406533  0.07422980     0.08100
H1616       H  0.70010539  0.69116176  0.11773890     0.04900
C1617       C  0.83408331  0.85876361  0.00836722    -0.20900
C1618       C  0.83365234  0.88147132  0.04305654    -0.07500
C1619       C  0.80564671  0.89579426  0.05336275     0.13400
C1620       C  0.77910030  0.88609609  0.03068125    -0.20900
C1621       C  0.77949444  0.86223235  0.99846216    -0.07500
C1622       C  0.80732745  0.84872115  0.98657033     0.13400
C1623       C  0.80842707  0.82230573  0.95341157    -0.24300
H1624       H  0.85524552  0.84747169  0.00027164     0.14700
H1625       H  0.75748177  0.89602161  0.04017200     0.14700
C1626       C  0.80288125  0.91966692  0.09063572    -0.24200
H1627       H  0.83188156  0.81373004  0.94868807     0.04900
H1628       H  0.79962961  0.82932006  0.91877410     0.08200
H1629       H  0.79427852  0.80345739  0.96718675     0.08200
H1630       H  0.81675754  0.93968422  0.08095589     0.08100
H1631       H  0.81051202  0.91042635  0.12470340     0.08100
H1632       H  0.77912207  0.92744902  0.09507044     0.04900
C1633       C  0.75500715  0.72761575  0.82326518    -0.20900
C1634       C  0.74125987  0.75527633  0.81077300    -0.07500
C1635       C  0.74133508  0.76426952  0.76353720     0.13400
C1636       C  0.75497298  0.74538979  0.73030187    -0.20900
C1637       C  0.76872505  0.71773930  0.74273850    -0.07500
C1638       C  0.76897889  0.70888480  0.79010245     0.13400
C1639       C  0.78452816  0.68067952  0.80750325    -0.24300
H1640       H  0.75471607  0.72041615  0.85949416     0.14700
H1641       H  0.75532413  0.75249992  0.69405426     0.14700
C1642       C  0.72625001  0.79309356  0.74758760    -0.24200
H1643       H  0.76758284  0.66556994  0.82436763     0.04900
H1644       H  0.80190667  0.68697617  0.83373773     0.08200
H1645       H  0.79607075  0.66774124  0.77966694     0.08200
H1646       H  0.70186203  0.79270822  0.75725551     0.08100
H1647       H  0.72780969  0.79605536  0.70914371     0.08100
H1648       H  0.73742549  0.81288914  0.76407126     0.04900
C1649       C  0.47552140  0.74034018  0.37697078    -0.20900
C1650       C  0.48884049  0.76845526  0.36778930    -0.07500
C1651       C  0.52071360  0.77067308  0.36215668     0.13400
C1652       C  0.53827761  0.74427793  0.36285744    -0.20900
C1653       C  0.52458727  0.71598984  0.36828320    -0.07500
C1654       C  0.49300085  0.71387752  0.37624383     0.13400
C1655       C  0.47751400  0.68363276  0.38167253    -0.24300
H1656       H  0.45114469  0.73887620  0.38131317     0.14700
H1657       H  0.56250058  0.74554228  0.35661120     0.14700
C1658       C  0.53629482  0.80073566  0.35498059    -0.24200
H1659       H  0.45287028  0.68617622  0.38865359     0.04900
H1660       H  0.48767434  0.67101868  0.41129218     0.08200
H1661       H  0.48015700  0.67025915  0.34914858     0.08200
H1662       H  0.53116113  0.81593511  0.38476398     0.08100
H1663       H  0.52856607  0.81143870  0.32214408     0.08100
H1664       H  0.56130413  0.79820070  0.35261667     0.04900
C1665       C  0.35038505  0.01954038  0.25663070    -0.20900
C1666       C  0.37390013  0.02020216  0.28925952    -0.07500
C1667       C  0.38524609  0.04844150  0.30418804     0.13400
C1668       C  0.37435515  0.07529365  0.28330494    -0.20900
C1669       C  0.35202157  0.07468945  0.24810380    -0.07500
C1670       C  0.33910999  0.04618131  0.23612790     0.13400
C1671       C  0.31466185  0.04299067  0.19985577    -0.24300
H1672       H  0.34171677  0.99773442  0.24549516     0.14700
H1673       H  0.38440972  0.09678111  0.29295998     0.14700
C1674       C  0.40995154  0.05010047  0.34026994    -0.24200
H1675       H  0.30801708  0.01898761  0.19441556     0.04900
H1676       H  0.32264140  0.05195743  0.16574086     0.08200
H1677       H  0.29416386  0.05526519  0.21171044     0.08200
H1678       H  0.43027224  0.03764404  0.32787111     0.08100
H1679       H  0.40187151  0.03978571  0.37343226     0.08100
H1680       H  0.41671218  0.07385866  0.34752261     0.04900
C1681       C  0.49295213  0.86664337  0.11039126    -0.20900
C1682       C  0.49900801  0.89045724  0.14131067    -0.07500
C1683       C  0.52646811  0.90685162  0.13686942     0.13400
C1684       C  0.54790891  0.89741946  0.10375125    -0.20900
C1685       C  0.54302129  0.87159997  0.07619150    -0.07500
C1686       C  0.51459769  0.85680105  0.07812957     0.13400
C1687       C  0.50686856  0.83038099  0.04702650    -0.24300
H1688       H  0.47174175  0.85435712  0.11362786     0.14700
H1689       H  0.56947155  0.90918494  0.10170645     0.14700
C1690       C  0.53508275  0.93293236  0.16800285    -0.24200
H1691       H  0.48259071  0.82395650  0.04999155     0.04900
H1692       H  0.52032723  0.81028968  0.05721654     0.08200
H1693       H  0.51145629  0.83629246  0.00998138     0.08200
H1694       H  0.55650203  0.92754028  0.18650789     0.08100
H1695       H  0.51781991  0.93821779  0.19468673     0.08100
H1696       H  0.53869766  0.95352515  0.14636405     0.04900
C1697       C  0.34981110  0.78218822  0.18295860    -0.20900
C1698       C  0.37771488  0.78158159  0.20662867    -0.07500
C1699       C  0.39534638  0.75471522  0.20500187     0.13400
C1700       C  0.38621538  0.73085232  0.17605388    -0.20900
C1701       C  0.35990484  0.73275078  0.14891391    -0.07500
C1702       C  0.34072163  0.75816786  0.15400639     0.13400
C1703       C  0.31165447  0.76100572  0.12686148    -0.24300
H1704       H  0.33572753  0.80222820  0.18511133     0.14700
H1705       H  0.40063772  0.71111276  0.17257957     0.14700
C1706       C  0.42395873  0.75076437  0.23309760    -0.24200
H1707       H  0.29980938  0.78263672  0.13440524     0.04900
H1708       H  0.29611954  0.74220120  0.13645558     0.08200
H1709       H  0.31647557  0.76024571  0.08882691     0.08200
H1710       H  0.41949128  0.75585746  0.27043464     0.08100
H1711       H  0.44199630  0.76580979  0.21933417     0.08100
H1712       H  0.43272305  0.72723383  0.23107682     0.04900
C1713       C  0.28517118  0.88585153  0.50955131    -0.20900
C1714       C  0.28531713  0.86024620  0.53830345    -0.07500
C1715       C  0.31316110  0.84630279  0.54902136     0.13400
C1716       C  0.34009947  0.85731123  0.52842764    -0.20900
C1717       C  0.34000927  0.88204887  0.49708636    -0.07500
C1718       C  0.31192525  0.89708787  0.48901390     0.13400
C1719       C  0.30915868  0.92405294  0.45708468    -0.24300
H1720       H  0.26360189  0.89635236  0.50144144     0.14700
H1721       H  0.36117914  0.84554333  0.53517524     0.14700
C1722       C  0.31420923  0.81898225  0.58048890    -0.24200
H1723       H  0.28545629  0.93237347  0.45473321     0.04900
H1724       H  0.31648419  0.91797187  0.42123673     0.08200
H1725       H  0.32309375  0.94287219  0.47097146     0.08200
H1726       H  0.30037881  0.80041379  0.56540670     0.08100
H1727       H  0.30502067  0.82496736  0.61538719     0.08100
H1728       H  0.33772260  0.81055865  0.58510373     0.04900
C1729       C  0.48776972  0.21208530  0.65709368    -0.20900
C1730       C  0.51938811  0.21535207  0.65910906    -0.07500
C1731       C  0.53237314  0.24452600  0.65971534     0.13400
C1732       C  0.51329746  0.26987060  0.66102059    -0.20900
C1733       C  0.48169357  0.26650946  0.66208608    -0.07500
C1734       C  0.46868022  0.23744602  0.65858758     0.13400
C1735       C  0.43481515  0.23310885  0.65974677    -0.24300
H1736       H  0.47800525  0.18953978  0.65707258     0.14700
H1737       H  0.52303929  0.29235380  0.66374347     0.14700
C1738       C  0.56618557  0.24883053  0.66231005    -0.24200
H1739       H  0.42847362  0.20879258  0.65794331     0.04900
H1740       H  0.42436099  0.24492019  0.62958865     0.08200
H1741       H  0.42544702  0.24253287  0.69264072     0.08200
H1742       H  0.57710474  0.23863564  0.63114472     0.08100
H1743       H  0.57506303  0.23771039  0.69421831     0.08100
H1744       H  0.57249632  0.27317396  0.66359575     0.04900
C1745       C  0.50600294  0.12569877  0.92156966    -0.20900
C1746       C  0.50381410  0.10060223  0.89190122    -0.07500
C1747       C  0.47764200  0.08210596  0.89409889     0.13400
C1748       C  0.45378313  0.08999995  0.92441448    -0.20900
C1749       C  0.45515809  0.11623972  0.95202642    -0.07500
C1750       C  0.48223607  0.13370328  0.95176107     0.13400
C1751       C  0.48660248  0.16074434  0.98321650    -0.24300
H1752       H  0.52607923  0.13985160  0.91974431     0.14700
H1753       H  0.43333053  0.07638104  0.92484197     0.14700
C1754       C  0.47388402  0.05518736  0.86238077    -0.24200
H1755       H  0.51014138  0.16962704  0.98140381     0.04900
H1756       H  0.48196834  0.15428167  0.02003716     0.08200
H1757       H  0.47139671  0.17944902  0.97252740     0.08200
H1758       H  0.49193359  0.03834429  0.86953997     0.08100
H1759       H  0.47523557  0.06254780  0.82535455     0.08100
H1760       H  0.45167290  0.04381972  0.86768465     0.04900
C1761       C  0.62248590  0.90554769  0.75385897    -0.20900
C1762       C  0.64457481  0.90618385  0.78946278    -0.07500
C1763       C  0.65699794  0.93461382  0.80233584     0.13400
C1764       C  0.64504883  0.96130856  0.78287825    -0.20900
C1765       C  0.62134118  0.96059983  0.75043443    -0.07500
C1766       C  0.61075307  0.93238448  0.73423281     0.13400
C1767       C  0.58586251  0.93061458  0.69845210    -0.24300
H1768       H  0.61302339  0.88396568  0.74329633     0.14700
H1769       H  0.65348065  0.98310494  0.79444981     0.14700
C1770       C  0.68153723  0.93742849  0.83852704    -0.24200
H1771       H  0.57987504  0.90679669  0.69010295     0.04900
H1772       H  0.59327965  0.94188930  0.66568100     0.08200
H1773       H  0.56521998  0.94205724  0.71188172     0.08200
H1774       H  0.70210416  0.92531382  0.82641416     0.08100
H1775       H  0.67365885  0.92788135  0.87231422     0.08100
H1776       H  0.68799441  0.96140860  0.84467091     0.04900
C1777       C  0.49352315  0.02022599  0.52774191    -0.20900
C1778       C  0.51627615  0.00583551  0.55429032    -0.07500
C1779       C  0.52145777  0.97463194  0.54805161     0.13400
C1780       C  0.50399875  0.95879806  0.51526600    -0.20900
C1781       C  0.48137920  0.97326832  0.48861938    -0.07500
C1782       C  0.47609289  0.00439423  0.49495782     0.13400
C1783       C  0.45309066  0.02122446  0.46602244    -0.24300
H1784       H  0.48941144  0.04421050  0.53262924     0.14700
H1785       H  0.50829488  0.93488236  0.50987677     0.14700
C1786       C  0.54458173  0.95776074  0.57661715    -0.24200
H1787       H  0.45245987  0.04569137  0.47484032     0.04900
H1788       H  0.43013158  0.01175063  0.47238008     0.08200
H1789       H  0.45881047  0.01915472  0.42838300     0.08200
H1790       H  0.53919497  0.96001612  0.61433344     0.08100
H1791       H  0.56753021  0.96701552  0.56962746     0.08100
H1792       H  0.54496621  0.93325039  0.56799566     0.04900
C1793       C  0.65392595  0.18933588  0.87161022    -0.20900
C1794       C  0.63232797  0.19553651  0.83689890    -0.07500
C1795       C  0.62000544  0.22513458  0.83384200     0.13400
C1796       C  0.62699947  0.24649389  0.86843010    -0.20900
C1797       C  0.64675295  0.23947938  0.90507093    -0.07500
C1798       C  0.66116645  0.21094483  0.90590421     0.13400
C1799       C  0.68263385  0.20259859  0.94463652    -0.24300
H1800       H  0.66384302  0.16693088  0.87357400     0.14700
H1801       H  0.61636437  0.26861060  0.86760632     0.14700
C1802       C  0.60004698  0.23468218  0.79374438    -0.24200
H1803       H  0.69147319  0.17921665  0.94054109     0.04900
H1804       H  0.67076375  0.20398316  0.97880030     0.08200
H1805       H  0.70224242  0.21836601  0.94460862     0.08200
H1806       H  0.57809927  0.22247195  0.79477170     0.08100
H1807       H  0.61182353  0.23003024  0.76021694     0.08100
H1808       H  0.59487395  0.25927919  0.79491717     0.04900
C1809       C  0.69629798  0.08246756  0.56411915    -0.20900
C1810       C  0.66896576  0.09376811  0.54621905    -0.07500
C1811       C  0.66994735  0.11185038  0.50524265     0.13400
C1812       C  0.69814024  0.12122773  0.48690199    -0.20900
C1813       C  0.72539803  0.11273770  0.50822385    -0.07500
C1814       C  0.72443297  0.09166949  0.54562556     0.13400
C1815       C  0.75304323  0.07891764  0.56639686    -0.24300
H1816       H  0.69577961  0.06796906  0.59469869     0.14700
H1817       H  0.69883055  0.13646545  0.45721533     0.14700
C1818       C  0.64135981  0.12114602  0.48047233    -0.24200
H1819       H  0.74813220  0.06101976  0.59265556     0.04900
H1820       H  0.76585644  0.09705290  0.58417011     0.08200
H1821       H  0.76724909  0.06876725  0.53846877     0.08200
H1822       H  0.62842795  0.13755562  0.50181862     0.08100
H1823       H  0.62719038  0.10084642  0.47354043     0.08100
H1824       H  0.64638719  0.13218399  0.44645509     0.04900
loop_ 
_geom_bond_atom_site_label_1 
_geom_bond_atom_site_label_2 
_geom_bond_distance 
_geom_bond_site_symmetry_2 
_ccdc_geom_bond_type 
Zr1           O2   2.442       .  S
Zr1           O3   2.487       .  S
Zr1           O4   2.465   1_545  S
Zr1           O7   2.474       .  S
Zr1           O9   2.385       .  S
Zr1          O10   2.391       .  S
Zr1          O11   2.430       .  S
Zr1          O12   2.401       .  S
O2           H58   0.990   1_545  S
O2           H66   0.990       .  S
O3           C23   1.292       .  A
O4           C25   1.288       .  A
O5          Zr15   2.432       .  S
O5           C24   1.284       .  A
O6          Zr14   2.437       .  S
O6           C25   1.286   1_545  A
O7           C24   1.293       .  A
O8          Zr16   2.368       .  S
O8           C23   1.272       .  A
O9          Zr14   2.400       .  S
O9          Zr16   2.383       .  S
O10         Zr15   2.395       .  S
O10         Zr16   2.390       .  S
O10          H45   0.965       .  S
O11         Zr14   2.408       .  S
O11         Zr31   2.406       .  S
O11          H48   0.964       .  S
O12         Zr15   2.385       .  S
O12         Zr31   2.390       .  S
Zr13         O38   2.443       .  S
Zr13         O32   2.429       .  S
Zr13         O40   2.427       .  S
Zr13         O28   2.432       .  S
Zr13         O19   2.389       .  S
Zr13         O20   2.406       .  S
Zr13         O21   2.380       .  S
Zr13         O22   2.379       .  S
Zr14         O33   2.438       .  S
Zr14         O26   2.434       .  S
Zr14         O27   2.451       .  S
Zr14         O20   2.399       .  S
Zr14         O21   2.402       .  S
Zr15         O17   2.435       .  S
Zr15         O39   2.440       .  S
Zr15         O41   2.440       .  S
Zr15         O19   2.385       .  S
Zr15         O22   2.397       .  S
Zr16         O42   2.434       .  S
Zr16         O43   2.436       .  S
Zr16         O18   2.441       .  S
Zr16         O19   2.377       .  S
Zr16         O20   2.374       .  S
O17          H54   0.990       .  S
O18          H49   0.990       .  S
O18          H63   0.990       .  S
O20          H46   0.963       .  S
O21         Zr31   2.378       .  S
O22         Zr31   2.383       .  S
O22          H47   0.965       .  S
C23        C1778   1.481       .  S
C24        C1810   1.492       .  S
C25        C1765   1.483       .  S
O26          H62   0.990       .  S
O27          C29   1.288       .  A
O28          C29   1.283       .  A
C29        C1746   1.481       .  S
O30         Zr31   2.438       .  S
O30          H59   0.991       .  S
Zr31         O34   2.437       .  S
Zr31         O35   2.439       .  S
Zr31         O36   2.437       .  S
O32          C37   1.281       .  A
O33          H50   0.990       .  S
O33          H65   0.990       .  S
O34          H51   0.990       .  S
O35          H55   0.990       .  S
O35          H64   0.990       .  S
O36          C37   1.283       .  A
C37        C1794   1.487       .  S
O38          H57   0.991       .  S
O38          H61   0.990       .  S
O39          H53   0.990       .  S
O39          H60   0.989       .  S
O40          C44   1.283       .  A
O41          C44   1.284       .  A
O42          H52   0.990       .  S
O43          H56   0.990       .  S
C44        C1730   1.468       .  S
Zr67         O68   2.439       .  S
Zr67         O69   2.481       .  S
Zr67         O70   2.481       .  S
Zr67         O73   2.465       .  S
Zr67         O75   2.380       .  S
Zr67         O76   2.393       .  S
Zr67         O77   2.423       .  S
Zr67         O78   2.425       .  S
O68         H124   0.990       .  S
O68         H132   0.990       .  S
O69          C89   1.292       .  A
O70          C91   1.293       .  A
O71         Zr81   2.421       .  S
O71          C90   1.283       .  A
O72         Zr80   2.449       .  S
O72          C91   1.289       .  A
O73          C90   1.289       .  A
O74         Zr82   2.354       .  S
O74          C89   1.269       .  A
O75         Zr80   2.397       .  S
O75         Zr82   2.394       .  S
O76         Zr81   2.396       .  S
O76         Zr82   2.374       .  S
O76         H111   0.966       .  S
O77         Zr80   2.406       .  S
O77         Zr97   2.370       .  S
O77         H114   0.961       .  S
O78         Zr81   2.392       .  S
O78         Zr97   2.402       .  S
Zr79        O104   2.445       .  S
Zr79         O98   2.427       .  S
Zr79        O106   2.413       .  S
Zr79         O94   2.431       .  S
Zr79         O85   2.397       .  S
Zr79         O86   2.400       .  S
Zr79         O87   2.373       .  S
Zr79         O88   2.388       .  S
Zr80         O99   2.437       .  S
Zr80         O92   2.434       .  S
Zr80         O93   2.449       .  S
Zr80         O86   2.403       .  S
Zr80         O87   2.400       .  S
Zr81         O83   2.435       .  S
Zr81        O105   2.436       .  S
Zr81        O107   2.436       .  S
Zr81         O85   2.383       .  S
Zr81         O88   2.402       .  S
Zr82        O108   2.436       .  S
Zr82        O109   2.437       .  S
Zr82         O84   2.438       .  S
Zr82         O85   2.372       .  S
Zr82         O86   2.356       .  S
O83         H120   0.989       .  S
O84         H115   0.990       .  S
O84         H129   0.990       .  S
O86         H112   0.962       .  S
O87         Zr97   2.384       .  S
O88         Zr97   2.372       .  S
O88         H113   0.968       .  S
C89        C1781   1.476       .  S
C90        C1666   1.483   1_565  S
C91        C1717   1.506       .  S
O92         H128   0.990       .  S
O93          C95   1.287       .  A
O94          C95   1.283       .  A
C95        C1650   1.468       .  S
O96         Zr97   2.436       .  S
O96         H125   0.990       .  S
Zr97        O100   2.436       .  S
Zr97        O101   2.437       .  S
Zr97        O102   2.423       .  S
O98         C103   1.281       .  A
O99         H116   0.990       .  S
O99         H131   0.990       .  S
O100        H117   0.990       .  S
O101        H121   0.990       .  S
O101        H130   0.990       .  S
O102        C103   1.282       .  A
C103       C1698   1.490       .  S
O104        H123   0.990       .  S
O104        H127   0.989       .  S
O105        H119   0.990       .  S
O105        H126   0.990       .  S
O106        C110   1.281       .  A
O107        C110   1.284       .  A
O108        H118   0.990       .  S
O109        H122   0.990       .  S
C110       C1682   1.472       .  S
Zr133       O134   2.440       .  S
Zr133       O135   2.476       .  S
Zr133       O136   2.476       .  S
Zr133       O139   2.486       .  S
Zr133       O141   2.391       .  S
Zr133       O142   2.394       .  S
Zr133       O143   2.422       .  S
Zr133       O144   2.398       .  S
O134        H190   0.990       .  S
O134        H198   0.991       .  S
O135        C155   1.292       .  A
O136        C157   1.290       .  A
O137       Zr147   2.424       .  S
O137        C156   1.284       .  A
O138       Zr146   2.413       .  S
O138        C157   1.281   1_554  A
O139        C156   1.294       .  A
O140       Zr148   2.366       .  S
O140        C155   1.272       .  A
O141       Zr146   2.402   1_556  S
O141       Zr148   2.385       .  S
O142       Zr147   2.393       .  S
O142       Zr148   2.388       .  S
O142        H177   0.965       .  S
O143       Zr146   2.408   1_556  S
O143       Zr163   2.396       .  S
O143        H180   0.964       .  S
O144       Zr147   2.384       .  S
O144       Zr163   2.384       .  S
Zr145       O170   2.444       .  S
Zr145       O164   2.427       .  S
Zr145       O172   2.423   1_554  S
Zr145       O160   2.449       .  S
Zr145       O151   2.395   1_554  S
Zr145       O152   2.394   1_554  S
Zr145       O153   2.373       .  S
Zr145       O154   2.389   1_554  S
Zr146       O165   2.437       .  S
Zr146       O158   2.434       .  S
Zr146       O159   2.444       .  S
Zr146       O152   2.392   1_554  S
Zr146       O153   2.392       .  S
Zr147       O149   2.439       .  S
Zr147       O171   2.440       .  S
Zr147       O173   2.428       .  S
Zr147       O151   2.388       .  S
Zr147       O154   2.399       .  S
Zr148       O174   2.434       .  S
Zr148       O175   2.435       .  S
Zr148       O150   2.436       .  S
Zr148       O151   2.370       .  S
Zr148       O152   2.361       .  S
O149        H186   0.990       .  S
O150        H181   0.990       .  S
O150        H195   0.990       .  S
O152        H178   0.965   1_556  S
O153       Zr163   2.379   1_554  S
O154       Zr163   2.386       .  S
O154        H179   0.966       .  S
C155       C1634   1.479       .  S
C156       C1762   1.498       .  S
C157       C1621   1.479       .  S
O158        H194   0.990       .  S
O159        C161   1.286       .  A
O160        C161   1.288       .  A
C161       C1602   1.485       .  S
O162       Zr163   2.440       .  S
O162        H191   0.990       .  S
Zr163       O166   2.436   1_556  S
Zr163       O167   2.440       .  S
Zr163       O168   2.410   1_556  S
O164        C169   1.282       .  A
O165        H182   0.990       .  S
O165        H197   0.990       .  S
O166        H183   0.990       .  S
O167        H187   0.990       .  S
O167        H196   0.991       .  S
O168        C169   1.279       .  A
C169       C1685   1.476       .  S
O170        H189   0.989       .  S
O170        H193   0.991       .  S
O171        H185   0.990       .  S
O171        H192   0.990       .  S
O172        C176   1.280       .  A
O173        C176   1.282       .  A
O174        H184   0.990       .  S
O175        H188   0.990       .  S
C176       C1586   1.458       .  S
Zr199       O200   2.440       .  S
Zr199       O201   2.483       .  S
Zr199       O202   2.485       .  S
Zr199       O205   2.477       .  S
Zr199       O207   2.389       .  S
Zr199       O208   2.392       .  S
Zr199       O209   2.422       .  S
Zr199       O210   2.422       .  S
O200        H256   0.990       .  S
O200        H264   0.991       .  S
O201        C221   1.292       .  A
O202        C223   1.295       .  A
O203       Zr213   2.425       .  S
O203        C222   1.283       .  A
O204       Zr212   2.434       .  S
O204        C223   1.284       .  A
O205        C222   1.292       .  A
O206       Zr214   2.361       .  S
O206        C221   1.270       .  A
O207       Zr212   2.404       .  S
O207       Zr214   2.391       .  S
O208       Zr213   2.407       .  S
O208       Zr214   2.379       .  S
O208        H243   0.966       .  S
O209       Zr212   2.412       .  S
O209       Zr229   2.384       .  S
O209        H246   0.963       .  S
O210       Zr213   2.395       .  S
O210       Zr229   2.405       .  S
Zr211       O236   2.443       .  S
Zr211       O230   2.425       .  S
Zr211       O238   2.424       .  S
Zr211       O226   2.425       .  S
Zr211       O217   2.386       .  S
Zr211       O218   2.401       .  S
Zr211       O219   2.374       .  S
Zr211       O220   2.381       .  S
Zr212       O231   2.437       .  S
Zr212       O224   2.435       .  S
Zr212       O225   2.447       .  S
Zr212       O218   2.396       .  S
Zr212       O219   2.401       .  S
Zr213       O215   2.435       .  S
Zr213       O237   2.439       .  S
Zr213       O239   2.440       .  S
Zr213       O217   2.381       .  S
Zr213       O220   2.399       .  S
Zr214       O240   2.436       .  S
Zr214       O241   2.435       .  S
Zr214       O216   2.439       .  S
Zr214       O217   2.365       .  S
Zr214       O218   2.365       .  S
O215        H252   0.990       .  S
O216        H247   0.990       .  S
O216        H261   0.990       .  S
O218        H244   0.964       .  S
O219       Zr229   2.386       .  S
O220       Zr229   2.378       .  S
O220        H245   0.965       .  S
C221       C1637   1.477       .  S
C222       C1525   1.489       .  S
C223       C1573   1.501       .  S
O224        H260   0.990       .  S
O225        C227   1.285       .  A
O226        C227   1.281       .  A
C227       C1506   1.466       .  S
O228       Zr229   2.436       .  S
O228        H257   0.990       .  S
Zr229       O232   2.439       .  S
Zr229       O233   2.442       .  S
Zr229       O234   2.422       .  S
O230        C235   1.282       .  A
O231        H248   0.990       .  S
O231        H263   0.990       .  S
O232        H249   0.990       .  S
O233        H253   0.990       .  S
O233        H262   0.989       .  S
O234        C235   1.279       .  A
C235       C1554   1.484       .  S
O236        H255   0.991       .  S
O236        H259   0.991       .  S
O237        H251   0.990       .  S
O237        H258   0.990       .  S
O238        C242   1.284       .  A
O239        C242   1.285       .  A
O240        H250   0.990       .  S
O241        H254   0.990       .  S
C242       C1538   1.483       .  S
Zr265       O266   2.441       .  S
Zr265       O267   2.482       .  S
Zr265       O268   2.472       .  S
Zr265       O271   2.476   1_545  S
Zr265       O273   2.384       .  S
Zr265       O274   2.392       .  S
Zr265       O275   2.430       .  S
Zr265       O276   2.420       .  S
O266        H322   0.990       .  S
O266        H330   0.990       .  S
O267        C287   1.291       .  A
O268        C289   1.292       .  A
O269       Zr279   2.418       .  S
O269        C288   1.283   1_545  A
O270       Zr278   2.446       .  S
O270        C289   1.287       .  A
O271        C288   1.292       .  A
O272       Zr280   2.374       .  S
O272        C287   1.272       .  A
O273       Zr278   2.402       .  S
O273       Zr280   2.392       .  S
O274       Zr279   2.401       .  S
O274       Zr280   2.373       .  S
O274        H309   0.967       .  S
O275       Zr278   2.412       .  S
O275       Zr295   2.381       .  S
O275        H312   0.960       .  S
O276       Zr279   2.395       .  S
O276       Zr295   2.400       .  S
Zr277       O302   2.442       .  S
Zr277       O296   2.431       .  S
Zr277       O304   2.418       .  S
Zr277       O292   2.428       .  S
Zr277       O283   2.399       .  S
Zr277       O284   2.407       .  S
Zr277       O285   2.375       .  S
Zr277       O286   2.382       .  S
Zr278       O297   2.439       .  S
Zr278       O290   2.434       .  S
Zr278       O291   2.461       .  S
Zr278       O284   2.401       .  S
Zr278       O285   2.404       .  S
Zr279       O281   2.435       .  S
Zr279       O303   2.437       .  S
Zr279       O305   2.432       .  S
Zr279       O283   2.383       .  S
Zr279       O286   2.399       .  S
Zr280       O306   2.435   1_455  S
Zr280       O307   2.436   1_455  S
Zr280       O282   2.439   1_455  S
Zr280       O283   2.376       .  S
Zr280       O284   2.371       .  S
O281        H318   0.990       .  S
O282        H313   0.990       .  S
O282        H327   0.990   1_655  S
O284        H310   0.962       .  S
O285       Zr295   2.389       .  S
O286       Zr295   2.370       .  S
O286        H311   0.967       .  S
C287       C1458   1.483   1_545  S
C288       C1442   1.488       .  S
C289       C1490   1.495   1_556  S
O290        H326   0.990       .  S
O291        C293   1.288       .  A
O292        C293   1.282       .  A
C293       C1410   1.474       .  S
O294       Zr295   2.438       .  S
O294        H323   0.990       .  S
Zr295       O298   2.437       .  S
Zr295       O299   2.438       .  S
Zr295       O300   2.425       .  S
O296        C301   1.283       .  A
O297        H314   0.990       .  S
O297        H329   0.990       .  S
O298        H315   0.991       .  S
O299        H319   0.990       .  S
O299        H328   0.990       .  S
O300        C301   1.280       .  A
C301       C1474   1.491       .  S
O302        H321   0.990       .  S
O302        H325   0.990       .  S
O303        H317   0.990       .  S
O303        H324   0.990   1_545  S
O304        C308   1.281       .  A
O305        C308   1.283       .  A
O306        H316   0.990       .  S
O307        H320   0.990       .  S
C308       C1426   1.466       .  S
Zr331       O332   2.440       .  S
Zr331       O333   2.488       .  S
Zr331       O334   2.490       .  S
Zr331       O337   2.488       .  S
Zr331       O339   2.386       .  S
Zr331       O340   2.390       .  S
Zr331       O341   2.429       .  S
Zr331       O342   2.403       .  S
O332        H388   0.990       .  S
O332        H396   0.990       .  S
O333        C353   1.293       .  A
O334        C355   1.294       .  A
O335       Zr345   2.418       .  S
O335        C354   1.283       .  A
O336       Zr344   2.426       .  S
O336        C355   1.285       .  A
O337        C354   1.296       .  A
O338       Zr346   2.375       .  S
O338        C353   1.272       .  A
O339       Zr344   2.405       .  S
O339       Zr346   2.383       .  S
O340       Zr345   2.397       .  S
O340       Zr346   2.385       .  S
O340        H375   0.966       .  S
O341       Zr344   2.411       .  S
O341       Zr361   2.401       .  S
O341        H378   0.965       .  S
O342       Zr345   2.390       .  S
O342       Zr361   2.389       .  S
Zr343       O368   2.443       .  S
Zr343       O362   2.420       .  S
Zr343       O370   2.424       .  S
Zr343       O358   2.433       .  S
Zr343       O349   2.387       .  S
Zr343       O350   2.403       .  S
Zr343       O351   2.373       .  S
Zr343       O352   2.380       .  S
Zr344       O363   2.437       .  S
Zr344       O356   2.435       .  S
Zr344       O357   2.453       .  S
Zr344       O350   2.399       .  S
Zr344       O351   2.397       .  S
Zr345       O347   2.437       .  S
Zr345       O369   2.440       .  S
Zr345       O371   2.425       .  S
Zr345       O349   2.383       .  S
Zr345       O352   2.400       .  S
Zr346       O372   2.435   1_655  S
Zr346       O373   2.437   1_655  S
Zr346       O348   2.440   1_655  S
Zr346       O349   2.375       .  S
Zr346       O350   2.376       .  S
O347        H384   0.990       .  S
O348        H379   0.990       .  S
O348        H393   0.990       .  S
O350        H376   0.961       .  S
O351       Zr361   2.383       .  S
O352       Zr361   2.380       .  S
O352        H377   0.965       .  S
C353       C1461   1.482       .  S
C354       C1618   1.498       .  S
C355       C1378   1.492   1_565  S
O356        H392   0.990       .  S
O357        C359   1.287       .  A
O358        C359   1.283       .  A
C359       C1394   1.482       .  S
O360       Zr361   2.439       .  S
O360        H389   0.991       .  S
Zr361       O364   2.437       .  S
Zr361       O365   2.439       .  S
Zr361       O366   2.427       .  S
O362        C367   1.279       .  A
O363        H380   0.990       .  S
O363        H395   0.990       .  S
O364        H381   0.990       .  S
O365        H385   0.990       .  S
O365        H394   0.989       .  S
O366        C367   1.280       .  A
C367       C1541   1.473       .  S
O368        H387   0.991       .  S
O368        H391   0.990       .  S
O369        H383   0.990       .  S
O369        H390   0.990       .  S
O370        C374   1.282       .  A
O371        C374   1.282       .  A
O372        H382   0.990   1_455  S
O373        H386   0.990       .  S
C374       C1365   1.459       .  S
Zr397       O398   2.442       .  S
Zr397       O399   2.487       .  S
Zr397       O400   2.471       .  S
Zr397       O403   2.463       .  S
Zr397       O405   2.379       .  S
Zr397       O406   2.386       .  S
Zr397       O407   2.427       .  S
Zr397       O408   2.423       .  S
O398        H454   0.990       .  S
O398        H462   0.990       .  S
O399        C419   1.293       .  A
O400        C421   1.291       .  A
O401       Zr411   2.420       .  S
O401        C420   1.282       .  A
O402       Zr410   2.448       .  S
O402        C421   1.286       .  A
O403        C420   1.289       .  A
O404       Zr412   2.360       .  S
O404        C419   1.271       .  A
O405       Zr410   2.403       .  S
O405       Zr412   2.395       .  S
O406       Zr411   2.398       .  S
O406       Zr412   2.371       .  S
O406        H441   0.965       .  S
O407       Zr410   2.409       .  S
O407       Zr427   2.392       .  S
O407        H444   0.962       .  S
O408       Zr411   2.393       .  S
O408       Zr427   2.406       .  S
Zr409       O434   2.445       .  S
Zr409       O428   2.426       .  S
Zr409       O436   2.426       .  S
Zr409       O424   2.419       .  S
Zr409       O415   2.397       .  S
Zr409       O416   2.397       .  S
Zr409       O417   2.377       .  S
Zr409       O418   2.377       .  S
Zr410       O429   2.436       .  S
Zr410       O422   2.437       .  S
Zr410       O423   2.456       .  S
Zr410       O416   2.402       .  S
Zr410       O417   2.402       .  S
Zr411       O413   2.434       .  S
Zr411       O435   2.438       .  S
Zr411       O437   2.429       .  S
Zr411       O415   2.390       .  S
Zr411       O418   2.399       .  S
Zr412       O438   2.436       .  S
Zr412       O439   2.436       .  S
Zr412       O414   2.441       .  S
Zr412       O415   2.377       .  S
Zr412       O416   2.359       .  S
O413        H450   0.990       .  S
O414        H445   0.990       .  S
O414        H459   0.990       .  S
O416        H442   0.961       .  S
O417       Zr427   2.385       .  S
O418       Zr427   2.365       .  S
O418        H443   0.966       .  S
C419       C1349   1.488       .  S
C420       C1714   1.481       .  S
C421       C1445   1.496       .  S
O422        H458   0.990       .  S
O423        C425   1.289       .  A
O424        C425   1.283       .  A
C425       C1509   1.475       .  S
O426       Zr427   2.437       .  S
O426        H455   0.990       .  S
Zr427       O430   2.435       .  S
Zr427       O431   2.440       .  S
Zr427       O432   2.441       .  S
O428        C433   1.281       .  A
O429        H446   0.990       .  S
O429        H461   0.990       .  S
O430        H447   0.990       .  S
O431        H451   0.990       .  S
O431        H460   0.990       .  S
O432        C433   1.285       .  A
C433       C1397   1.492       .  S
O434        H453   0.990       .  S
O434        H457   0.991       .  S
O435        H449   0.990       .  S
O435        H456   0.990       .  S
O436        C440   1.282       .  A
O437        C440   1.283       .  A
O438        H448   0.990       .  S
O439        H452   0.990       .  S
C440       C1330   1.470       .  S
Zr463       O464   2.441       .  S
Zr463       O465   2.487       .  S
Zr463       O466   2.468       .  S
Zr463       O469   2.478       .  S
Zr463       O471   2.387       .  S
Zr463       O472   2.385       .  S
Zr463       O473   2.425       .  S
Zr463       O474   2.401       .  S
O464        H520   0.990       .  S
O464        H528   0.991       .  S
O465        C485   1.294       .  A
O466        C487   1.288       .  A
O467       Zr477   2.419       .  S
O467        C486   1.282       .  A
O468       Zr476   2.432       .  S
O468        C487   1.285   1_554  A
O469        C486   1.293       .  A
O470       Zr478   2.373       .  S
O470        C485   1.273       .  A
O471       Zr476   2.404   1_556  S
O471       Zr478   2.384       .  S
O472       Zr477   2.388       .  S
O472       Zr478   2.386       .  S
O472        H507   0.966       .  S
O473       Zr476   2.403   1_556  S
O473       Zr493   2.401       .  S
O473        H510   0.965       .  S
O474       Zr477   2.384       .  S
O474       Zr493   2.392       .  S
Zr475       O500   2.443       .  S
Zr475       O494   2.425       .  S
Zr475       O502   2.428   1_554  S
Zr475       O490   2.427       .  S
Zr475       O481   2.390   1_554  S
Zr475       O482   2.401       .  S
Zr475       O483   2.378       .  S
Zr475       O484   2.382   1_554  S
Zr476       O495   2.438       .  S
Zr476       O488   2.434       .  S
Zr476       O489   2.451       .  S
Zr476       O482   2.396       .  S
Zr476       O483   2.400       .  S
Zr477       O479   2.436       .  S
Zr477       O501   2.442       .  S
Zr477       O503   2.420       .  S
Zr477       O481   2.391       .  S
Zr477       O484   2.397       .  S
Zr478       O504   2.434       .  S
Zr478       O505   2.436       .  S
Zr478       O480   2.437       .  S
Zr478       O481   2.376       .  S
Zr478       O482   2.368   1_556  S
O479        H516   0.990       .  S
O480        H511   0.990       .  S
O480        H525   0.990       .  S
O482        H508   0.964       .  S
O483       Zr493   2.371   1_554  S
O484       Zr493   2.385       .  S
O484        H509   0.965       .  S
C485       C1346   1.490       .  S
C486       C1317   1.494       .  S
C487       C1282   1.484   1_556  S
O488        H524   0.990       .  S
O489        C491   1.287       .  A
O490        C491   1.284       .  A
C491       C1701   1.480       .  S
O492       Zr493   2.438       .  S
O492        H521   0.990   1_556  S
Zr493       O496   2.437   1_556  S
Zr493       O497   2.440       .  S
Zr493       O498   2.434   1_556  S
O494        C499   1.281       .  A
O495        H512   0.990       .  S
O495        H527   0.990       .  S
O496        H513   0.990       .  S
O497        H517   0.990       .  S
O497        H526   0.990       .  S
O498        C499   1.283       .  A
C499       C1298   1.484       .  S
O500        H519   0.990       .  S
O500        H523   0.990       .  S
O501        H515   0.990       .  S
O501        H522   0.990       .  S
O502        C506   1.282       .  A
O503        C506   1.281       .  A
O504        H514   0.990       .  S
O505        H518   0.990       .  S
C506       C1589   1.461       .  S
Zr529       O530   2.440       .  S
Zr529       O531   2.479       .  S
Zr529       O532   2.485       .  S
Zr529       O535   2.488       .  S
Zr529       O537   2.389       .  S
Zr529       O538   2.393       .  S
Zr529       O539   2.426       .  S
Zr529       O540   2.393       .  S
O530        H586   0.990       .  S
O530        H594   0.990       .  S
O531        C551   1.291       .  A
O532        C553   1.292       .  A
O533       Zr543   2.416       .  S
O533        C552   1.282       .  A
O534       Zr542   2.416       .  S
O534        C553   1.283       .  A
O535        C552   1.296       .  A
O536       Zr544   2.380       .  S
O536        C551   1.272       .  A
O537       Zr542   2.401       .  S
O537       Zr544   2.376       .  S
O538       Zr543   2.395       .  S
O538       Zr544   2.389       .  S
O538        H573   0.964       .  S
O539       Zr542   2.410       .  S
O539       Zr559   2.403       .  S
O539        H576   0.966       .  S
O540       Zr543   2.388       .  S
O540       Zr559   2.384       .  S
Zr541       O566   2.443       .  S
Zr541       O560   2.440       .  S
Zr541       O568   2.416       .  S
Zr541       O556   2.427       .  S
Zr541       O547   2.395       .  S
Zr541       O548   2.408       .  S
Zr541       O549   2.376       .  S
Zr541       O550   2.373       .  S
Zr542       O561   2.434       .  S
Zr542       O554   2.436       .  S
Zr542       O555   2.447       .  S
Zr542       O548   2.393       .  S
Zr542       O549   2.399       .  S
Zr543       O545   2.436       .  S
Zr543       O567   2.440       .  S
Zr543       O569   2.433       .  S
Zr543       O547   2.384       .  S
Zr543       O550   2.398       .  S
Zr544       O570   2.437       .  S
Zr544       O571   2.436       .  S
Zr544       O546   2.440       .  S
Zr544       O547   2.387       .  S
Zr544       O548   2.378       .  S
O545        H582   0.990       .  S
O546        H577   0.990       .  S
O546        H591   0.990       .  S
O548        H574   0.964       .  S
O549       Zr559   2.381       .  S
O550       Zr559   2.387       .  S
O550        H575   0.966       .  S
C551       C1237   1.470       .  S
C552       C1266   1.500       .  S
C553       C1218   1.487       .  S
O554        H590   0.990       .  S
O555        C557   1.286       .  A
O556        C557   1.281       .  A
C557       C1477   1.477       .  S
O558       Zr559   2.440       .  S
O558        H587   0.991       .  S
Zr559       O562   2.437       .  S
Zr559       O563   2.440       .  S
Zr559       O564   2.428       .  S
O560        C565   1.284       .  A
O561        H578   0.990       .  S
O561        H593   0.990       .  S
O562        H579   0.989       .  S
O563        H583   0.989       .  S
O563        H592   0.991       .  S
O564        C565   1.282       .  A
C565       C1250   1.488       .  S
O566        H585   0.990       .  S
O566        H589   0.990       .  S
O567        H581   0.990       .  S
O567        H588   0.990       .  S
O568        C572   1.282       .  A
O569        C572   1.283       .  A
O570        H580   0.990       .  S
O571        H584   0.990       .  S
C572       C1205   1.476       .  S
Zr595       O596   2.440       .  S
Zr595       O597   2.478       .  S
Zr595       O598   2.475       .  S
Zr595       O601   2.460       .  S
Zr595       O603   2.380       .  S
Zr595       O604   2.395       .  S
Zr595       O605   2.425       .  S
Zr595       O606   2.423       .  S
O596        H652   0.990       .  S
O596        H660   0.989       .  S
O597        C617   1.290       .  A
O598        C619   1.292       .  A
O599       Zr609   2.429       .  S
O599        C618   1.284       .  A
O600       Zr608   2.450       .  S
O600        C619   1.288       .  A
O601        C618   1.288       .  A
O602       Zr610   2.357       .  S
O602        C617   1.268       .  A
O603       Zr608   2.408       .  S
O603       Zr610   2.399       .  S
O604       Zr609   2.403       .  S
O604       Zr610   2.373       .  S
O604        H639   0.966       .  S
O605       Zr608   2.405       .  S
O605       Zr625   2.382       .  S
O605        H642   0.962       .  S
O606       Zr609   2.392       .  S
O606       Zr625   2.401       .  S
Zr607       O632   2.445   1_554  S
Zr607       O626   2.422   1_554  S
Zr607       O634   2.420   1_554  S
Zr607       O622   2.433       .  S
Zr607       O613   2.396       .  S
Zr607       O614   2.400       .  S
Zr607       O615   2.375       .  S
Zr607       O616   2.386   1_554  S
Zr608       O627   2.435       .  S
Zr608       O620   2.435       .  S
Zr608       O621   2.460       .  S
Zr608       O614   2.400       .  S
Zr608       O615   2.399       .  S
Zr609       O611   2.435   1_554  S
Zr609       O633   2.438   1_554  S
Zr609       O635   2.438   1_554  S
Zr609       O613   2.389       .  S
Zr609       O616   2.401   1_554  S
Zr610       O636   2.435       .  S
Zr610       O637   2.436       .  S
Zr610       O612   2.438       .  S
Zr610       O613   2.364       .  S
Zr610       O614   2.365       .  S
O611        H648   0.990       .  S
O612        H643   0.990       .  S
O612        H657   0.989       .  S
O614        H640   0.959       .  S
O615       Zr625   2.386       .  S
O616       Zr625   2.366   1_556  S
O616        H641   0.967       .  S
C617       C1234   1.468       .  S
C618       C1493   1.485       .  S
C619       C1669   1.503       .  S
O620        H656   0.989       .  S
O621        C623   1.289       .  A
O622        C623   1.284       .  A
C623       C1170   1.479       .  S
O624       Zr625   2.437       .  S
O624        H653   0.990       .  S
Zr625       O628   2.433       .  S
Zr625       O629   2.438   1_554  S
Zr625       O630   2.434   1_554  S
O626        C631   1.280       .  A
O627        H644   0.990       .  S
O627        H659   0.990       .  S
O628        H645   0.990       .  S
O629        H649   0.990       .  S
O629        H658   0.990       .  S
O630        C631   1.283       .  A
C631       C1749   1.490       .  S
O632        H651   0.990       .  S
O632        H655   0.991       .  S
O633        H647   0.990       .  S
O633        H654   0.990   1_556  S
O634        C638   1.280       .  A
O635        C638   1.285       .  A
O636        H646   0.990       .  S
O637        H650   0.990       .  S
C638       C1189   1.464       .  S
Zr661       O662   2.438       .  S
Zr661       O663   2.487       .  S
Zr661       O664   2.495       .  S
Zr661       O667   2.463       .  S
Zr661       O669   2.383       .  S
Zr661       O670   2.393       .  S
Zr661       O671   2.424       .  S
Zr661       O672   2.427       .  S
O662        H718   0.990       .  S
O662        H726   0.989       .  S
O663        C683   1.293       .  A
O664        C685   1.295       .  A
O665       Zr675   2.428       .  S
O665        C684   1.284       .  A
O666       Zr674   2.440       .  S
O666        C685   1.287       .  A
O667        C684   1.288       .  A
O668       Zr676   2.361       .  S
O668        C683   1.270       .  A
O669       Zr674   2.403       .  S
O669       Zr676   2.398       .  S
O670       Zr675   2.398       .  S
O670       Zr676   2.373       .  S
O670        H705   0.965       .  S
O671       Zr674   2.407       .  S
O671       Zr691   2.387       .  S
O671        H708   0.962       .  S
O672       Zr675   2.399       .  S
O672       Zr691   2.410       .  S
Zr673       O698   2.445       .  S
Zr673       O692   2.425       .  S
Zr673       O700   2.416       .  S
Zr673       O688   2.417       .  S
Zr673       O679   2.399       .  S
Zr673       O680   2.395       .  S
Zr673       O681   2.377       .  S
Zr673       O682   2.383       .  S
Zr674       O693   2.436       .  S
Zr674       O686   2.435       .  S
Zr674       O687   2.447       .  S
Zr674       O680   2.395       .  S
Zr674       O681   2.401       .  S
Zr675       O677   2.435       .  S
Zr675       O699   2.439       .  S
Zr675       O701   2.443       .  S
Zr675       O679   2.392       .  S
Zr675       O682   2.402       .  S
Zr676       O702   2.435       .  S
Zr676       O703   2.436       .  S
Zr676       O678   2.439       .  S
Zr676       O679   2.378       .  S
Zr676       O680   2.357       .  S
O677        H714   0.990       .  S
O678        H709   0.990       .  S
O678        H723   0.990       .  S
O680        H706   0.963       .  S
O681       Zr691   2.380       .  S
O682       Zr691   2.372       .  S
O682        H707   0.967       .  S
C683       C1157   1.486       .  S
C684       C1138   1.486       .  S
C685       C1522   1.516       .  S
O686        H722   0.990       .  S
O687        C689   1.286       .  A
O688        C689   1.281       .  A
C689       C1653   1.462       .  S
O690       Zr691   2.434       .  S
O690        H719   0.990       .  S
Zr691       O694   2.435       .  S
Zr691       O695   2.438       .  S
Zr691       O696   2.441       .  S
O692        C697   1.281       .  A
O693        H710   0.990       .  S
O693        H725   0.990       .  S
O694        H711   0.989       .  S
O695        H715   0.990       .  S
O695        H724   0.989       .  S
O696        C697   1.284       .  A
C697       C1605   1.490       .  S
O698        H717   0.990       .  S
O698        H721   0.991       .  S
O699        H713   0.990       .  S
O699        H720   0.990       .  S
O700        C704   1.280       .  A
O701        C704   1.286       .  A
O702        H712   0.990       .  S
O703        H716   0.990       .  S
C704       C1301   1.475       .  S
Zr727       O728   2.441       .  S
Zr727       O729   2.485       .  S
Zr727       O730   2.476       .  S
Zr727       O733   2.483       .  S
Zr727       O735   2.392       .  S
Zr727       O736   2.388       .  S
Zr727       O737   2.426       .  S
Zr727       O738   2.399       .  S
O728        H784   0.990       .  S
O728        H792   0.991       .  S
O729        C749   1.293       .  A
O730        C751   1.290       .  A
O731       Zr741   2.418       .  S
O731        C750   1.281       .  A
O732       Zr740   2.419       .  S
O732        C751   1.283       .  A
O733        C750   1.295       .  A
O734       Zr742   2.367       .  S
O734        C749   1.271       .  A
O735       Zr740   2.403       .  S
O735       Zr742   2.384       .  S
O736       Zr741   2.393       .  S
O736       Zr742   2.385       .  S
O736        H771   0.966       .  S
O737       Zr740   2.406       .  S
O737       Zr757   2.392       .  S
O737        H774   0.964       .  S
O738       Zr741   2.391       .  S
O738       Zr757   2.391       .  S
Zr739       O764   2.443       .  S
Zr739       O758   2.427       .  S
Zr739       O766   2.440       .  S
Zr739       O754   2.426       .  S
Zr739       O745   2.389       .  S
Zr739       O746   2.406       .  S
Zr739       O747   2.379       .  S
Zr739       O748   2.380       .  S
Zr740       O759   2.438       .  S
Zr740       O752   2.433       .  S
Zr740       O753   2.442       .  S
Zr740       O746   2.394       .  S
Zr740       O747   2.394       .  S
Zr741       O743   2.436       .  S
Zr741       O765   2.437       .  S
Zr741       O767   2.423       .  S
Zr741       O745   2.388       .  S
Zr741       O748   2.394       .  S
Zr742       O768   2.434       .  S
Zr742       O769   2.435       .  S
Zr742       O744   2.438       .  S
Zr742       O745   2.377       .  S
Zr742       O746   2.369       .  S
O743        H780   0.990       .  S
O744        H775   0.990       .  S
O744        H789   0.990       .  S
O746        H772   0.964       .  S
O747       Zr757   2.377       .  S
O748       Zr757   2.386       .  S
O748        H773   0.967       .  S
C749       C1154   1.485       .  S
C750       C1221   1.495       .  S
C751       C1314   1.481       .  S
O752        H788   0.989       .  S
O753        C755   1.286       .  A
O754        C755   1.283       .  A
C755       C1122   1.471       .  S
O756       Zr757   2.439       .  S
O756        H785   0.991       .  S
Zr757       O760   2.439       .  S
Zr757       O761   2.438       .  S
Zr757       O762   2.415       .  S
O758        C763   1.281       .  A
O759        H776   0.990       .  S
O759        H791   0.990       .  S
O760        H777   0.990       .  S
O761        H781   0.990       .  S
O761        H790   0.990       .  S
O762        C763   1.279       .  A
C763       C1186   1.473       .  S
O764        H783   0.990       .  S
O764        H787   0.991       .  S
O765        H779   0.990       .  S
O765        H786   0.990       .  S
O766        C770   1.284       .  A
O767        C770   1.281       .  A
O768        H778   0.990       .  S
O769        H782   0.990       .  S
C770       C1733   1.467       .  S
Zr793       O794   2.441       .  S
Zr793       O795   2.487       .  S
Zr793       O796   2.490       .  S
Zr793       O799   2.493       .  S
Zr793       O801   2.392       .  S
Zr793       O802   2.392       .  S
Zr793       O803   2.428       .  S
Zr793       O804   2.398       .  S
O794        H850   0.990       .  S
O794        H858   0.990       .  S
O795        C815   1.293       .  A
O796        C817   1.294       .  A
O797       Zr807   2.431       .  S
O797        C816   1.284       .  A
O798       Zr806   2.422       .  S
O798        C817   1.283       .  A
O799        C816   1.297       .  A
O800       Zr808   2.376       .  S
O800        C815   1.272       .  A
O801       Zr806   2.404       .  S
O801       Zr808   2.387       .  S
O802       Zr807   2.390       .  S
O802       Zr808   2.386       .  S
O802        H837   0.966       .  S
O803       Zr806   2.408       .  S
O803       Zr823   2.398       .  S
O803        H840   0.965       .  S
O804       Zr807   2.386       .  S
O804       Zr823   2.385       .  S
Zr805       O830   2.443       .  S
Zr805       O824   2.420       .  S
Zr805       O832   2.420       .  S
Zr805       O820   2.438       .  S
Zr805       O811   2.398       .  S
Zr805       O812   2.398       .  S
Zr805       O813   2.376       .  S
Zr805       O814   2.377       .  S
Zr806       O825   2.434       .  S
Zr806       O818   2.437       .  S
Zr806       O819   2.444       .  S
Zr806       O812   2.393       .  S
Zr806       O813   2.395       .  S
Zr807       O809   2.435       .  S
Zr807       O831   2.441       .  S
Zr807       O833   2.427       .  S
Zr807       O811   2.398       .  S
Zr807       O814   2.398       .  S
Zr808       O834   2.436       .  S
Zr808       O835   2.435       .  S
Zr808       O810   2.437       .  S
Zr808       O811   2.383       .  S
Zr808       O812   2.370       .  S
O809        H846   0.990       .  S
O810        H841   0.990       .  S
O810        H855   0.990       .  S
O812        H838   0.964       .  S
O813       Zr823   2.379       .  S
O814       Zr823   2.378       .  S
O814        H839   0.966       .  S
C815       C1109   1.483       .  S
C816       C1381   1.501       .  S
C817       C1813   1.490       .  S
O818        H854   0.990       .  S
O819        C821   1.286       .  A
O820        C821   1.286       .  A
C821       C1090   1.482       .  S
O822       Zr823   2.438       .  S
O822        H851   0.990       .  S
Zr823       O826   2.435       .  S
Zr823       O827   2.442       .  S
Zr823       O828   2.421       .  S
O824        C829   1.281       .  A
O825        H842   0.990       .  S
O825        H857   0.989       .  S
O826        H843   0.989       .  S
O827        H847   0.989       .  S
O827        H856   0.990       .  S
O828        C829   1.280       .  A
C829       C1429   1.476       .  S
O830        H849   0.991       .  S
O830        H853   0.990       .  S
O831        H845   0.990       .  S
O831        H852   0.990       .  S
O832        C836   1.281       .  A
O833        C836   1.282       .  A
O834        H844   0.990       .  S
O835        H848   0.990       .  S
C836       C1202   1.463       .  S
Zr859       O860   2.440       .  S
Zr859       O861   2.474       .  S
Zr859       O862   2.483       .  S
Zr859       O865   2.466       .  S
Zr859       O867   2.388       .  S
Zr859       O868   2.391       .  S
Zr859       O869   2.423       .  S
Zr859       O870   2.417       .  S
O860        H916   0.990       .  S
O860        H924   0.990       .  S
O861        C881   1.291       .  A
O862        C883   1.294       .  A
O863       Zr873   2.435       .  S
O863        C882   1.285       .  A
O864       Zr872   2.438       .  S
O864        C883   1.284       .  A
O865        C882   1.289       .  A
O866       Zr874   2.375       .  S
O866        C881   1.273       .  A
O867       Zr872   2.403       .  S
O867       Zr874   2.394       .  S
O868       Zr873   2.397       .  S
O868       Zr874   2.373       .  S
O868        H903   0.966       .  S
O869       Zr872   2.411       .  S
O869       Zr889   2.382       .  S
O869        H906   0.963       .  S
O870       Zr873   2.395       .  S
O870       Zr889   2.400       .  S
Zr871       O896   2.444       .  S
Zr871       O890   2.424   1_554  S
Zr871       O898   2.434   1_554  S
Zr871       O886   2.427       .  S
Zr871       O877   2.396       .  S
Zr871       O878   2.400       .  S
Zr871       O879   2.378       .  S
Zr871       O880   2.380       .  S
Zr872       O891   2.441       .  S
Zr872       O884   2.436       .  S
Zr872       O885   2.459       .  S
Zr872       O878   2.397       .  S
Zr872       O879   2.402       .  S
Zr873       O875   2.436   1_554  S
Zr873       O897   2.438   1_554  S
Zr873       O899   2.440   1_554  S
Zr873       O877   2.392       .  S
Zr873       O880   2.401       .  S
Zr874       O900   2.434       .  S
Zr874       O901   2.435       .  S
Zr874       O876   2.437       .  S
Zr874       O877   2.377       .  S
Zr874       O878   2.368       .  S
O875        H912   0.990       .  S
O876        H907   0.990       .  S
O876        H921   0.990       .  S
O878        H904   0.964       .  S
O879       Zr889   2.385       .  S
O880       Zr889   2.374       .  S
O880        H905   0.965   1_554  S
C881       C1106   1.480       .  S
C882       C1077   1.488       .  S
C883       C1141   1.499       .  S
O884        H920   0.990       .  S
O885        C887   1.289       .  A
O886        C887   1.282       .  A
C887       C1173   1.473       .  S
O888       Zr889   2.436       .  S
O888        H917   0.990       .  S
Zr889       O892   2.435       .  S
Zr889       O893   2.441   1_554  S
Zr889       O894   2.419       .  S
O890        C895   1.280       .  A
O891        H908   0.990       .  S
O891        H923   0.990       .  S
O892        H909   0.990       .  S
O893        H913   0.990       .  S
O893        H922   0.990       .  S
O894        C895   1.280   1_554  A
C895       C1125   1.481       .  S
O896        H915   0.990   1_554  S
O896        H919   0.991       .  S
O897        H911   0.990       .  S
O897        H918   0.989   1_556  S
O898        C902   1.283       .  A
O899        C902   1.285       .  A
O900        H910   0.990       .  S
O901        H914   0.990       .  S
C902       C1797   1.478       .  S
Zr925       O926   2.440       .  S
Zr925       O927   2.479       .  S
Zr925       O928   2.479       .  S
Zr925       O931   2.488       .  S
Zr925       O933   2.389       .  S
Zr925       O934   2.392       .  S
Zr925       O935   2.424       .  S
Zr925       O936   2.394       .  S
O926        H982   0.990       .  S
O926        H990   0.990       .  S
O927        C947   1.292       .  A
O928        C949   1.291       .  A
O929       Zr939   2.417       .  S
O929        C948   1.282       .  A
O930       Zr938   2.414       .  S
O930        C949   1.282       .  A
O931        C948   1.295       .  A
O932       Zr940   2.368       .  S
O932        C947   1.272       .  A
O933       Zr938   2.399       .  S
O933       Zr940   2.384       .  S
O934       Zr939   2.393       .  S
O934       Zr940   2.389       .  S
O934        H969   0.965       .  S
O935       Zr938   2.402       .  S
O935       Zr955   2.398       .  S
O935        H972   0.964       .  S
O936       Zr939   2.382       .  S
O936       Zr955   2.384       .  S
Zr937       O962   2.445       .  S
Zr937       O956   2.425       .  S
Zr937       O964   2.434       .  S
Zr937       O952   2.436       .  S
Zr937       O943   2.388       .  S
Zr937       O944   2.401       .  S
Zr937       O945   2.379       .  S
Zr937       O946   2.381       .  S
Zr938       O957   2.437       .  S
Zr938       O950   2.434       .  S
Zr938       O951   2.426       .  S
Zr938       O944   2.397       .  S
Zr938       O945   2.398       .  S
Zr939       O941   2.436       .  S
Zr939       O963   2.439       .  S
Zr939       O965   2.421       .  S
Zr939       O943   2.384       .  S
Zr939       O946   2.391       .  S
Zr940       O966   2.435   1_455  S
Zr940       O967   2.435   1_455  S
Zr940       O942   2.437   1_455  S
Zr940       O943   2.371       .  S
Zr940       O944   2.373       .  S
O941        H978   0.990       .  S
O942        H973   0.990       .  S
O942        H987   0.990       .  S
O944        H970   0.965       .  S
O945       Zr955   2.376       .  S
O946       Zr955   2.384       .  S
O946        H971   0.966       .  S
C947       C1061   1.486       .  S
C948       C1285   1.499       .  S
C949       C1269   1.480       .  S
O950        H986   0.990       .  S
O951        C953   1.283       .  A
O952        C953   1.283       .  A
C953       C1557   1.470       .  S
O954       Zr955   2.435       .  S
O954        H983   0.990       .  S
Zr955       O958   2.436       .  S
Zr955       O959   2.437       .  S
Zr955       O960   2.421       .  S
O956        C961   1.281       .  A
O957        H974   0.990       .  S
O957        H989   0.990       .  S
O958        H975   0.990       .  S
O959        H979   0.990       .  S
O959        H988   0.990       .  S
O960        C961   1.281       .  A
C961       C1333   1.477       .  S
O962        H981   0.991       .  S
O962        H985   0.990       .  S
O963        H977   0.990       .  S
O963        H984   0.990       .  S
O964        C968   1.285       .  A
O965        C968   1.282       .  A
O966        H976   0.990       .  S
O967        H980   0.990       .  S
C968       C1362   1.460       .  S
Zr991       O992   2.439       .  S
Zr991       O993   2.479       .  S
Zr991       O994   2.482       .  S
Zr991       O997   2.468       .  S
Zr991       O999   2.382       .  S
Zr991      O1000   2.394       .  S
Zr991      O1001   2.423       .  S
Zr991      O1002   2.421       .  S
O992       H1048   0.990       .  S
O992       H1056   0.990       .  S
O993       C1013   1.291       .  A
O994       C1015   1.292       .  A
O995      Zr1005   2.430       .  S
O995       C1014   1.284       .  A
O996      Zr1004   2.453       .  S
O996       C1015   1.289       .  A
O997       C1014   1.289       .  A
O998      Zr1006   2.358       .  S
O998       C1013   1.271       .  A
O999      Zr1004   2.402       .  S
O999      Zr1006   2.396       .  S
O1000     Zr1005   2.401       .  S
O1000     Zr1006   2.378       .  S
O1000      H1035   0.964       .  S
O1001     Zr1004   2.405       .  S
O1001     Zr1021   2.383       .  S
O1001      H1038   0.962       .  S
O1002     Zr1005   2.395       .  S
O1002     Zr1021   2.408       .  S
Zr1003     O1028   2.442       .  S
Zr1003     O1022   2.417       .  S
Zr1003     O1030   2.420       .  S
Zr1003     O1018   2.426       .  S
Zr1003     O1009   2.393       .  S
Zr1003     O1010   2.403       .  S
Zr1003     O1011   2.375       .  S
Zr1003     O1012   2.381       .  S
Zr1004     O1023   2.437       .  S
Zr1004     O1016   2.435       .  S
Zr1004     O1017   2.457       .  S
Zr1004     O1010   2.406       .  S
Zr1004     O1011   2.403       .  S
Zr1005     O1007   2.435       .  S
Zr1005     O1029   2.440       .  S
Zr1005     O1031   2.449       .  S
Zr1005     O1009   2.384       .  S
Zr1005     O1012   2.401       .  S
Zr1006     O1032   2.436   1_655  S
Zr1006     O1033   2.438   1_655  S
Zr1006     O1008   2.440   1_655  S
Zr1006     O1009   2.369       .  S
Zr1006     O1010   2.368       .  S
O1007      H1044   0.990       .  S
O1008      H1039   0.990   1_455  S
O1008      H1053   0.989       .  S
O1010      H1036   0.952       .  S
O1011     Zr1021   2.380       .  S
O1012     Zr1021   2.375       .  S
O1012      H1037   0.964       .  S
C1013      C1058   1.483       .  S
C1014      C1570   1.488       .  S
C1015      C1074   1.515   1_556  S
O1016      H1052   0.990       .  S
O1017      C1019   1.288       .  A
O1018      C1019   1.281       .  A
C1019      C1413   1.472       .  S
O1020     Zr1021   2.436       .  S
O1020      H1049   0.990       .  S
Zr1021     O1024   2.438       .  S
Zr1021     O1025   2.438       .  S
Zr1021     O1026   2.440       .  S
O1022      C1027   1.280       .  A
O1023      H1040   0.990       .  S
O1023      H1055   0.990       .  S
O1024      H1041   0.990       .  S
O1025      H1045   0.989       .  S
O1025      H1054   0.990       .  S
O1026      C1027   1.283       .  A
C1027      C1093   1.494       .  S
O1028      H1047   0.990   1_655  S
O1028      H1051   0.991       .  S
O1029      H1043   0.990       .  S
O1029      H1050   0.990       .  S
O1030      C1034   1.282       .  A
O1031      C1034   1.287       .  A
O1032      H1042   0.990       .  S
O1033      H1046   0.990       .  S
C1034      C1253   1.476   1_655  S
C1057      C1058   1.413   1_454  A
C1057      C1062   1.402       .  A
C1057      H1064   1.084   1_554  S
C1058      C1059   1.407   1_556  A
C1059      C1060   1.403       .  A
C1059      C1066   1.507   1_554  S
C1060      C1061   1.415   1_655  A
C1060      H1065   1.084       .  S
C1061      C1062   1.409       .  A
C1062      C1063   1.507       .  S
C1063      H1067   1.111       .  S
C1063      H1068   1.110       .  S
C1063      H1069   1.110       .  S
C1066      H1070   1.109       .  S
C1066      H1071   1.111       .  S
C1066      H1072   1.111   1_556  S
C1073      C1074   1.414       .  A
C1073      C1078   1.410       .  A
C1073      H1080   1.083       .  S
C1074      C1075   1.428       .  A
C1075      C1076   1.413       .  A
C1075      C1082   1.505   1_554  S
C1076      C1077   1.400       .  A
C1076      H1081   1.084       .  S
C1077      C1078   1.409       .  A
C1078      C1079   1.506       .  S
C1079      H1083   1.111       .  S
C1079      H1084   1.110       .  S
C1079      H1085   1.110       .  S
C1082      H1086   1.109       .  S
C1082      H1087   1.110       .  S
C1082      H1088   1.111       .  S
C1089      C1090   1.405       .  A
C1089      C1094   1.409       .  A
C1089      H1096   1.084       .  S
C1090      C1091   1.413       .  A
C1091      C1092   1.402       .  A
C1091      C1098   1.509       .  S
C1092      C1093   1.409       .  A
C1092      H1097   1.085       .  S
C1093      C1094   1.418       .  A
C1094      C1095   1.507       .  S
C1095      H1099   1.111       .  S
C1095      H1100   1.110       .  S
C1095      H1101   1.110       .  S
C1098      H1102   1.110       .  S
C1098      H1103   1.108       .  S
C1098      H1104   1.111       .  S
C1105      C1106   1.409       .  A
C1105      C1110   1.404       .  A
C1105      H1112   1.085       .  S
C1106      C1107   1.414       .  A
C1107      C1108   1.405       .  A
C1107      C1114   1.508       .  S
C1108      C1109   1.409       .  A
C1108      H1113   1.085       .  S
C1109      C1110   1.411       .  A
C1110      C1111   1.507       .  S
C1111      H1115   1.111       .  S
C1111      H1116   1.110       .  S
C1111      H1117   1.110       .  S
C1114      H1118   1.110       .  S
C1114      H1119   1.104       .  S
C1114      H1120   1.111       .  S
C1121      C1122   1.400       .  A
C1121      C1126   1.401       .  A
C1121      H1128   1.085       .  S
C1122      C1123   1.413       .  A
C1123      C1124   1.404       .  A
C1123      C1130   1.507       .  S
C1124      C1125   1.405       .  A
C1124      H1129   1.084       .  S
C1125      C1126   1.418       .  A
C1126      C1127   1.510       .  S
C1127      H1131   1.111       .  S
C1127      H1132   1.111   1_556  S
C1127      H1133   1.109       .  S
C1130      H1134   1.109       .  S
C1130      H1135   1.110       .  S
C1130      H1136   1.111       .  S
C1137      C1138   1.404       .  A
C1137      C1142   1.414       .  A
C1137      H1144   1.084       .  S
C1138      C1139   1.412       .  A
C1139      C1140   1.406       .  A
C1139      C1146   1.508       .  S
C1140      C1141   1.407       .  A
C1140      H1145   1.084       .  S
C1141      C1142   1.423       .  A
C1142      C1143   1.508       .  S
C1143      H1147   1.111       .  S
C1143      H1148   1.110       .  S
C1143      H1149   1.109       .  S
C1146      H1150   1.110       .  S
C1146      H1151   1.109       .  S
C1146      H1152   1.111       .  S
C1153      C1154   1.412       .  A
C1153      C1158   1.405       .  A
C1153      H1160   1.084       .  S
C1154      C1155   1.411       .  A
C1155      C1156   1.404       .  A
C1155      C1162   1.508       .  S
C1156      C1157   1.412       .  A
C1156      H1161   1.084       .  S
C1157      C1158   1.409       .  A
C1158      C1159   1.507       .  S
C1159      H1163   1.111       .  S
C1159      H1164   1.110       .  S
C1159      H1165   1.110       .  S
C1162      H1166   1.110       .  S
C1162      H1167   1.111       .  S
C1162      H1168   1.111       .  S
C1169      C1170   1.402       .  A
C1169      C1174   1.408       .  A
C1169      H1176   1.084       .  S
C1170      C1171   1.421       .  A
C1171      C1172   1.402       .  A
C1171      C1178   1.507       .  S
C1172      C1173   1.396       .  A
C1172      H1177   1.085       .  S
C1173      C1174   1.415       .  A
C1174      C1175   1.506       .  S
C1175      H1179   1.111       .  S
C1175      H1180   1.110       .  S
C1175      H1181   1.110       .  S
C1178      H1182   1.102       .  S
C1178      H1183   1.110       .  S
C1178      H1184   1.110       .  S
C1185      C1186   1.403       .  A
C1185      C1190   1.402       .  A
C1185      H1192   1.085       .  S
C1186      C1187   1.415       .  A
C1187      C1188   1.400       .  A
C1187      C1194   1.508       .  S
C1188      C1189   1.400       .  A
C1188      H1193   1.085       .  S
C1189      C1190   1.413       .  A
C1190      C1191   1.507       .  S
C1191      H1195   1.110       .  S
C1191      H1196   1.111       .  S
C1191      H1197   1.107       .  S
C1194      H1198   1.108       .  S
C1194      H1199   1.110       .  S
C1194      H1200   1.111       .  S
C1201      C1202   1.402       .  A
C1201      C1206   1.406   1_655  A
C1201      H1208   1.084       .  S
C1202      C1203   1.408   1_655  A
C1203      C1204   1.395       .  A
C1203      C1210   1.508       .  S
C1204      C1205   1.405       .  A
C1204      H1209   1.085       .  S
C1205      C1206   1.415       .  A
C1206      C1207   1.506       .  S
C1207      H1211   1.111   1_455  S
C1207      H1212   1.110       .  S
C1207      H1213   1.110       .  S
C1210      H1214   1.110       .  S
C1210      H1215   1.108   1_455  S
C1210      H1216   1.111       .  S
C1217      C1218   1.404       .  A
C1217      C1222   1.405       .  A
C1217      H1224   1.085       .  S
C1218      C1219   1.411       .  A
C1219      C1220   1.413       .  A
C1219      C1226   1.505       .  S
C1220      C1221   1.413       .  A
C1220      H1225   1.084       .  S
C1221      C1222   1.417       .  A
C1222      C1223   1.508       .  S
C1223      H1227   1.111       .  S
C1223      H1228   1.110       .  S
C1223      H1229   1.109       .  S
C1226      H1230   1.110       .  S
C1226      H1231   1.110       .  S
C1226      H1232   1.111       .  S
C1233      C1234   1.403       .  A
C1233      C1238   1.400       .  A
C1233      H1240   1.085       .  S
C1234      C1235   1.414       .  A
C1235      C1236   1.405       .  A
C1235      C1242   1.509       .  S
C1236      C1237   1.405       .  A
C1236      H1241   1.085       .  S
C1237      C1238   1.413       .  A
C1238      C1239   1.508       .  S
C1239      H1243   1.111       .  S
C1239      H1244   1.106       .  S
C1239      H1245   1.110       .  S
C1242      H1246   1.110       .  S
C1242      H1247   1.107       .  S
C1242      H1248   1.110       .  S
C1249      C1250   1.406       .  A
C1249      C1254   1.404   1_455  A
C1249      H1256   1.084       .  S
C1250      C1251   1.419       .  A
C1251      C1252   1.408       .  A
C1251      C1258   1.506       .  S
C1252      C1253   1.402       .  A
C1252      H1257   1.084       .  S
C1253      C1254   1.411   1_455  A
C1254      C1255   1.508       .  S
C1255      H1259   1.111       .  S
C1255      H1260   1.111       .  S
C1255      H1261   1.109       .  S
C1258      H1262   1.110       .  S
C1258      H1263   1.110       .  S
C1258      H1264   1.111       .  S
C1265      C1266   1.415       .  A
C1265      C1270   1.410       .  A
C1265      H1272   1.084       .  S
C1266      C1267   1.420       .  A
C1267      C1268   1.407       .  A
C1267      C1274   1.507       .  S
C1268      C1269   1.402       .  A
C1268      H1273   1.085       .  S
C1269      C1270   1.408       .  A
C1270      C1271   1.506       .  S
C1271      H1275   1.111       .  S
C1271      H1276   1.110       .  S
C1271      H1277   1.111       .  S
C1274      H1278   1.109       .  S
C1274      H1279   1.110       .  S
C1274      H1280   1.111       .  S
C1281      C1282   1.401       .  A
C1281      C1286   1.407       .  A
C1281      H1288   1.084       .  S
C1282      C1283   1.410   1_554  A
C1283      C1284   1.410   1_556  A
C1283      C1290   1.506       .  S
C1284      C1285   1.413       .  A
C1284      H1289   1.084       .  S
C1285      C1286   1.419       .  A
C1286      C1287   1.505       .  S
C1287      H1291   1.111       .  S
C1287      H1292   1.110       .  S
C1287      H1293   1.108       .  S
C1290      H1294   1.110       .  S
C1290      H1295   1.110       .  S
C1290      H1296   1.111       .  S
C1297      C1298   1.406       .  A
C1297      C1302   1.405       .  A
C1297      H1304   1.084       .  S
C1298      C1299   1.419       .  A
C1299      C1300   1.403       .  A
C1299      C1306   1.509       .  S
C1300      C1301   1.402       .  A
C1300      H1305   1.085       .  S
C1301      C1302   1.411       .  A
C1302      C1303   1.507       .  S
C1303      H1307   1.111       .  S
C1303      H1308   1.111       .  S
C1303      H1309   1.110       .  S
C1306      H1310   1.108       .  S
C1306      H1311   1.110       .  S
C1306      H1312   1.111       .  S
C1313      C1314   1.403       .  A
C1313      C1318   1.405       .  A
C1313      H1320   1.085       .  S
C1314      C1315   1.409       .  A
C1315      C1316   1.409       .  A
C1315      C1322   1.505       .  S
C1316      C1317   1.412       .  A
C1316      H1321   1.084       .  S
C1317      C1318   1.419       .  A
C1318      C1319   1.507       .  S
C1319      H1323   1.111       .  S
C1319      H1324   1.109       .  S
C1319      H1325   1.109       .  S
C1322      H1326   1.110       .  S
C1322      H1327   1.111       .  S
C1322      H1328   1.111       .  S
C1329      C1330   1.401       .  A
C1329      C1334   1.401       .  A
C1329      H1336   1.084       .  S
C1330      C1331   1.412       .  A
C1331      C1332   1.403       .  A
C1331      C1338   1.507       .  S
C1332      C1333   1.404       .  A
C1332      H1337   1.084       .  S
C1333      C1334   1.416       .  A
C1334      C1335   1.510       .  S
C1335      H1339   1.111       .  S
C1335      H1340   1.109       .  S
C1335      H1341   1.111       .  S
C1338      H1342   1.110       .  S
C1338      H1343   1.110       .  S
C1338      H1344   1.111       .  S
C1345      C1346   1.414       .  A
C1345      C1350   1.407       .  A
C1345      H1352   1.084       .  S
C1346      C1347   1.412       .  A
C1347      C1348   1.403       .  A
C1347      C1354   1.508       .  S
C1348      C1349   1.412       .  A
C1348      H1353   1.084       .  S
C1349      C1350   1.410       .  A
C1350      C1351   1.507       .  S
C1351      H1355   1.111       .  S
C1351      H1356   1.111       .  S
C1351      H1357   1.110       .  S
C1354      H1358   1.110       .  S
C1354      H1359   1.110       .  S
C1354      H1360   1.111       .  S
C1361      C1362   1.399       .  A
C1361      C1366   1.399       .  A
C1361      H1368   1.084       .  S
C1362      C1363   1.414   1_455  A
C1363      C1364   1.399       .  A
C1363      C1370   1.507       .  S
C1364      C1365   1.398       .  A
C1364      H1369   1.085       .  S
C1365      C1366   1.411   1_655  A
C1366      C1367   1.507       .  S
C1367      H1371   1.111       .  S
C1367      H1372   1.109       .  S
C1367      H1373   1.110       .  S
C1370      H1374   1.110       .  S
C1370      H1375   1.107       .  S
C1370      H1376   1.111       .  S
C1377      C1378   1.404       .  A
C1377      C1382   1.407       .  A
C1377      H1384   1.084   1_545  S
C1378      C1379   1.412       .  A
C1379      C1380   1.415       .  A
C1379      C1386   1.505       .  S
C1380      C1381   1.413       .  A
C1380      H1385   1.084       .  S
C1381      C1382   1.418       .  A
C1382      C1383   1.506       .  S
C1383      H1387   1.111       .  S
C1383      H1388   1.110       .  S
C1383      H1389   1.107       .  S
C1386      H1390   1.110       .  S
C1386      H1391   1.110       .  S
C1386      H1392   1.111       .  S
C1393      C1394   1.402       .  A
C1393      C1398   1.404   1_655  A
C1393      H1400   1.084       .  S
C1394      C1395   1.415   1_655  A
C1395      C1396   1.409       .  A
C1395      C1402   1.507       .  S
C1396      C1397   1.407       .  A
C1396      H1401   1.084       .  S
C1397      C1398   1.421       .  A
C1398      C1399   1.510       .  S
C1399      H1403   1.111   1_455  S
C1399      H1404   1.111       .  S
C1399      H1405   1.108       .  S
C1402      H1406   1.110       .  S
C1402      H1407   1.110       .  S
C1402      H1408   1.111       .  S
C1409      C1410   1.398       .  A
C1409      C1414   1.404       .  A
C1409      H1416   1.084       .  S
C1410      C1411   1.418   1_455  A
C1411      C1412   1.405       .  A
C1411      C1418   1.508       .  S
C1412      C1413   1.398       .  A
C1412      H1417   1.084       .  S
C1413      C1414   1.416   1_655  A
C1414      C1415   1.506       .  S
C1415      H1419   1.110       .  S
C1415      H1420   1.111       .  S
C1415      H1421   1.109       .  S
C1418      H1422   1.110       .  S
C1418      H1423   1.109       .  S
C1418      H1424   1.111       .  S
C1425      C1426   1.401   1_655  A
C1425      C1430   1.404       .  A
C1425      H1432   1.084       .  S
C1426      C1427   1.410       .  A
C1427      C1428   1.399   1_455  A
C1427      C1434   1.508       .  S
C1428      C1429   1.404       .  A
C1428      H1433   1.083       .  S
C1429      C1430   1.415       .  A
C1430      C1431   1.507       .  S
C1431      H1435   1.111       .  S
C1431      H1436   1.109       .  S
C1431      H1437   1.111       .  S
C1434      H1438   1.110       .  S
C1434      H1439   1.110       .  S
C1434      H1440   1.111       .  S
C1441      C1442   1.404       .  A
C1441      C1446   1.413       .  A
C1441      H1448   1.084       .  S
C1442      C1443   1.414       .  A
C1443      C1444   1.407       .  A
C1443      C1450   1.508       .  S
C1444      C1445   1.408       .  A
C1444      H1449   1.084       .  S
C1445      C1446   1.419       .  A
C1446      C1447   1.506       .  S
C1447      H1451   1.111       .  S
C1447      H1452   1.110       .  S
C1447      H1453   1.108       .  S
C1450      H1454   1.111       .  S
C1450      H1455   1.109       .  S
C1450      H1456   1.111       .  S
C1457      C1458   1.408   1_655  A
C1457      C1462   1.405   1_556  A
C1457      H1464   1.084       .  S
C1458      C1459   1.412   1_566  A
C1459      C1460   1.408   1_545  A
C1459      C1466   1.507       .  S
C1460      C1461   1.410   1_455  A
C1460      H1465   1.084       .  S
C1461      C1462   1.411       .  A
C1462      C1463   1.507   1_554  S
C1463      H1467   1.110   1_556  S
C1463      H1468   1.111   1_556  S
C1463      H1469   1.111       .  S
C1466      H1470   1.111       .  S
C1466      H1471   1.111       .  S
C1466      H1472   1.110       .  S
C1473      C1474   1.408       .  A
C1473      C1478   1.403       .  A
C1473      H1480   1.084       .  S
C1474      C1475   1.420       .  A
C1475      C1476   1.407       .  A
C1475      C1482   1.507       .  S
C1476      C1477   1.403       .  A
C1476      H1481   1.084       .  S
C1477      C1478   1.411       .  A
C1478      C1479   1.508       .  S
C1479      H1483   1.111       .  S
C1479      H1484   1.108       .  S
C1479      H1485   1.110       .  S
C1482      H1486   1.110       .  S
C1482      H1487   1.110       .  S
C1482      H1488   1.111       .  S
C1489      C1490   1.407   1_556  A
C1489      C1494   1.405   1_556  A
C1489      H1496   1.084       .  S
C1490      C1491   1.420       .  A
C1491      C1492   1.413       .  A
C1491      C1498   1.507       .  S
C1492      C1493   1.404       .  A
C1492      H1497   1.084       .  S
C1493      C1494   1.413       .  A
C1494      C1495   1.508   1_554  S
C1495      H1499   1.111       .  S
C1495      H1500   1.111   1_556  S
C1495      H1501   1.109       .  S
C1498      H1502   1.110       .  S
C1498      H1503   1.108       .  S
C1498      H1504   1.111       .  S
C1505      C1506   1.406       .  A
C1505      C1510   1.408   1_655  A
C1505      H1512   1.084       .  S
C1506      C1507   1.405   1_655  A
C1507      C1508   1.397       .  A
C1507      C1514   1.507       .  S
C1508      C1509   1.407       .  A
C1508      H1513   1.085       .  S
C1509      C1510   1.410       .  A
C1510      C1511   1.505   1_455  S
C1511      H1515   1.111       .  S
C1511      H1516   1.111   1_655  S
C1511      H1517   1.110   1_655  S
C1514      H1518   1.108   1_455  S
C1514      H1519   1.110       .  S
C1514      H1520   1.111       .  S
C1521      C1522   1.415       .  A
C1521      C1526   1.410       .  A
C1521      H1528   1.083       .  S
C1522      C1523   1.426       .  A
C1523      C1524   1.414       .  A
C1523      C1530   1.504       .  S
C1524      C1525   1.402       .  A
C1524      H1529   1.084       .  S
C1525      C1526   1.409       .  A
C1526      C1527   1.507       .  S
C1527      H1531   1.111       .  S
C1527      H1532   1.110       .  S
C1527      H1533   1.111       .  S
C1530      H1534   1.109       .  S
C1530      H1535   1.110       .  S
C1530      H1536   1.111       .  S
C1537      C1538   1.405       .  A
C1537      C1542   1.395       .  A
C1537      H1544   1.085       .  S
C1538      C1539   1.416       .  A
C1539      C1540   1.411       .  A
C1539      C1546   1.506       .  S
C1540      C1541   1.405       .  A
C1540      H1545   1.084       .  S
C1541      C1542   1.410       .  A
C1542      C1543   1.510       .  S
C1543      H1547   1.111       .  S
C1543      H1548   1.111       .  S
C1543      H1549   1.108       .  S
C1546      H1550   1.110       .  S
C1546      H1551   1.110       .  S
C1546      H1552   1.111       .  S
C1553      C1554   1.406       .  A
C1553      C1558   1.400   1_655  A
C1553      H1560   1.082       .  S
C1554      C1555   1.417       .  A
C1555      C1556   1.405       .  A
C1555      C1562   1.507       .  S
C1556      C1557   1.403   1_655  A
C1556      H1561   1.085       .  S
C1557      C1558   1.408       .  A
C1558      C1559   1.508       .  S
C1559      H1563   1.111       .  S
C1559      H1564   1.108       .  S
C1559      H1565   1.111       .  S
C1562      H1566   1.110       .  S
C1562      H1567   1.110       .  S
C1562      H1568   1.111       .  S
C1569      C1570   1.403       .  A
C1569      C1574   1.413       .  A
C1569      H1576   1.084       .  S
C1570      C1571   1.412       .  A
C1571      C1572   1.407       .  A
C1571      C1578   1.507       .  S
C1572      C1573   1.408       .  A
C1572      H1577   1.084       .  S
C1573      C1574   1.424       .  A
C1574      C1575   1.508       .  S
C1575      H1579   1.111       .  S
C1575      H1580   1.110       .  S
C1575      H1581   1.108       .  S
C1578      H1582   1.110       .  S
C1578      H1583   1.110       .  S
C1578      H1584   1.111       .  S
C1585      C1586   1.398       .  A
C1585      C1590   1.399       .  A
C1585      H1592   1.085       .  S
C1586      C1587   1.414       .  A
C1587      C1588   1.400       .  A
C1587      C1594   1.507       .  S
C1588      C1589   1.399       .  A
C1588      H1593   1.085       .  S
C1589      C1590   1.412       .  A
C1590      C1591   1.508       .  S
C1591      H1595   1.111       .  S
C1591      H1596   1.109       .  S
C1591      H1597   1.110       .  S
C1594      H1598   1.111       .  S
C1594      H1599   1.108       .  S
C1594      H1600   1.110       .  S
C1601      C1602   1.401       .  A
C1601      C1606   1.404       .  A
C1601      H1608   1.084       .  S
C1602      C1603   1.417       .  A
C1603      C1604   1.410       .  A
C1603      C1610   1.507       .  S
C1604      C1605   1.406       .  A
C1604      H1609   1.084       .  S
C1605      C1606   1.419       .  A
C1606      C1607   1.510       .  S
C1607      H1611   1.111       .  S
C1607      H1612   1.111       .  S
C1607      H1613   1.108       .  S
C1610      H1614   1.110       .  S
C1610      H1615   1.110       .  S
C1610      H1616   1.111       .  S
C1617      C1618   1.413       .  A
C1617      C1622   1.409   1_554  A
C1617      H1624   1.084       .  S
C1618      C1619   1.420       .  A
C1619      C1620   1.408       .  A
C1619      C1626   1.507       .  S
C1620      C1621   1.402   1_554  A
C1620      H1625   1.084       .  S
C1621      C1622   1.407       .  A
C1622      C1623   1.507       .  S
C1623      H1627   1.110       .  S
C1623      H1628   1.110       .  S
C1623      H1629   1.111       .  S
C1626      H1630   1.109       .  S
C1626      H1631   1.110       .  S
C1626      H1632   1.111       .  S
C1633      C1634   1.411       .  A
C1633      C1638   1.403       .  A
C1633      H1640   1.085       .  S
C1634      C1635   1.410       .  A
C1635      C1636   1.402       .  A
C1635      C1642   1.508       .  S
C1636      C1637   1.410       .  A
C1636      H1641   1.084       .  S
C1637      C1638   1.411       .  A
C1638      C1639   1.507       .  S
C1639      H1643   1.110       .  S
C1639      H1644   1.111       .  S
C1639      H1645   1.106       .  S
C1642      H1646   1.110       .  S
C1642      H1647   1.111       .  S
C1642      H1648   1.110       .  S
C1649      C1650   1.397       .  A
C1649      C1654   1.401       .  A
C1649      H1656   1.084       .  S
C1650      C1651   1.418       .  A
C1651      C1652   1.401       .  A
C1651      C1658   1.508       .  S
C1652      C1653   1.395       .  A
C1652      H1657   1.085       .  S
C1653      C1654   1.415       .  A
C1654      C1655   1.507       .  S
C1655      H1659   1.111       .  S
C1655      H1660   1.110       .  S
C1655      H1661   1.110       .  S
C1658      H1662   1.110       .  S
C1658      H1663   1.107       .  S
C1658      H1664   1.111       .  S
C1665      C1666   1.399       .  A
C1665      C1670   1.406       .  A
C1665      H1672   1.085   1_545  S
C1666      C1667   1.411       .  A
C1667      C1668   1.413       .  A
C1667      C1674   1.506       .  S
C1668      C1669   1.412       .  A
C1668      H1673   1.084       .  S
C1669      C1670   1.424       .  A
C1670      C1671   1.506       .  S
C1671      H1675   1.111       .  S
C1671      H1676   1.110       .  S
C1671      H1677   1.108       .  S
C1674      H1678   1.110       .  S
C1674      H1679   1.111       .  S
C1674      H1680   1.111       .  S
C1681      C1682   1.402       .  A
C1681      C1686   1.398       .  A
C1681      H1688   1.085       .  S
C1682      C1683   1.416       .  A
C1683      C1684   1.402       .  A
C1683      C1690   1.507       .  S
C1684      C1685   1.405       .  A
C1684      H1689   1.085       .  S
C1685      C1686   1.414       .  A
C1686      C1687   1.509       .  S
C1687      H1691   1.111       .  S
C1687      H1692   1.107       .  S
C1687      H1693   1.110       .  S
C1690      H1694   1.111       .  S
C1690      H1695   1.103       .  S
C1690      H1696   1.111       .  S
C1697      C1698   1.407       .  A
C1697      C1702   1.407       .  A
C1697      H1704   1.084       .  S
C1698      C1699   1.420       .  A
C1699      C1700   1.402       .  A
C1699      C1706   1.509       .  S
C1700      C1701   1.401       .  A
C1700      H1705   1.085       .  S
C1701      C1702   1.414       .  A
C1702      C1703   1.507       .  S
C1703      H1707   1.111       .  S
C1703      H1708   1.110       .  S
C1703      H1709   1.110       .  S
C1706      H1710   1.111       .  S
C1706      H1711   1.107       .  S
C1706      H1712   1.111       .  S
C1713      C1714   1.398       .  A
C1713      C1718   1.407       .  A
C1713      H1720   1.085       .  S
C1714      C1715   1.409       .  A
C1715      C1716   1.411       .  A
C1715      C1722   1.506       .  S
C1716      C1717   1.413       .  A
C1716      H1721   1.084       .  S
C1717      C1718   1.426       .  A
C1718      C1719   1.505       .  S
C1719      H1723   1.111       .  S
C1719      H1724   1.109       .  S
C1719      H1725   1.108       .  S
C1722      H1726   1.110       .  S
C1722      H1727   1.110       .  S
C1722      H1728   1.111       .  S
C1729      C1730   1.404       .  A
C1729      C1734   1.403       .  A
C1729      H1736   1.084       .  S
C1730      C1731   1.410       .  A
C1731      C1732   1.402       .  A
C1731      C1738   1.506       .  S
C1732      C1733   1.402       .  A
C1732      H1737   1.085       .  S
C1733      C1734   1.409       .  A
C1734      C1735   1.506       .  S
C1735      H1739   1.111       .  S
C1735      H1740   1.110       .  S
C1735      H1741   1.110       .  S
C1738      H1742   1.110       .  S
C1738      H1743   1.109       .  S
C1738      H1744   1.111       .  S
C1745      C1746   1.402       .  A
C1745      C1750   1.404       .  A
C1745      H1752   1.085       .  S
C1746      C1747   1.415       .  A
C1747      C1748   1.408       .  A
C1747      C1754   1.507       .  S
C1748      C1749   1.406       .  A
C1748      H1753   1.084       .  S
C1749      C1750   1.421       .  A
C1750      C1751   1.510       .  S
C1751      H1755   1.111       .  S
C1751      H1756   1.111   1_556  S
C1751      H1757   1.108       .  S
C1754      H1758   1.110       .  S
C1754      H1759   1.110       .  S
C1754      H1760   1.110       .  S
C1761      C1762   1.413       .  A
C1761      C1766   1.410       .  A
C1761      H1768   1.084       .  S
C1762      C1763   1.419       .  A
C1763      C1764   1.407       .  A
C1763      C1770   1.506       .  S
C1764      C1765   1.402       .  A
C1764      H1769   1.084       .  S
C1765      C1766   1.410       .  A
C1766      C1767   1.506       .  S
C1767      H1771   1.111       .  S
C1767      H1772   1.110       .  S
C1767      H1773   1.110       .  S
C1770      H1774   1.109       .  S
C1770      H1775   1.110       .  S
C1770      H1776   1.111       .  S
C1777      C1778   1.412       .  A
C1777      C1782   1.403       .  A
C1777      H1784   1.084       .  S
C1778      C1779   1.409   1_545  A
C1779      C1780   1.403       .  A
C1779      C1786   1.507       .  S
C1780      C1781   1.411       .  A
C1780      H1785   1.085       .  S
C1781      C1782   1.407   1_565  A
C1782      C1783   1.508       .  S
C1783      H1787   1.111       .  S
C1783      H1788   1.110       .  S
C1783      H1789   1.111       .  S
C1786      H1790   1.110       .  S
C1786      H1791   1.109       .  S
C1786      H1792   1.111       .  S
C1793      C1794   1.406       .  A
C1793      C1798   1.408       .  A
C1793      H1800   1.084       .  S
C1794      C1795   1.419       .  A
C1795      C1796   1.404       .  A
C1795      C1802   1.509       .  S
C1796      C1797   1.401       .  A
C1796      H1801   1.084       .  S
C1797      C1798   1.413       .  A
C1798      C1799   1.506       .  S
C1799      H1803   1.111       .  S
C1799      H1804   1.111       .  S
C1799      H1805   1.110       .  S
C1802      H1806   1.108       .  S
C1802      H1807   1.110       .  S
C1802      H1808   1.111       .  S
C1809      C1810   1.404       .  A
C1809      C1814   1.408       .  A
C1809      H1816   1.084       .  S
C1810      C1811   1.419       .  A
C1811      C1812   1.410       .  A
C1811      C1818   1.506       .  S
C1812      C1813   1.402       .  A
C1812      H1817   1.084       .  S
C1813      C1814   1.418       .  A
C1814      C1815   1.506       .  S
C1815      H1819   1.111       .  S
C1815      H1820   1.106       .  S
C1815      H1821   1.111       .  S
C1818      H1822   1.107       .  S
C1818      H1823   1.111       .  S
C1818      H1824   1.111       .  S
