geometry optimzed in LAMMPS
_audit_creation_date              2020-12-01 
_audit_creation_method            'lammps2cif' 
_symmetry_space_group_name_H-M    'P1' 
_symmetry_Int_Tables_number       1 
_symmetry_cell_setting            triclinic 
loop_ 
_symmetry_equiv_pos_as_xyz 
  x,y,z 
_cell_length_a                    37.90148769 
_cell_length_b                    37.663321092644516 
_cell_length_c                    39.08836498685121 
_cell_angle_alpha                 90.34632033185399 
_cell_angle_beta                  89.64929725070111 
_cell_angle_gamma                 89.77728747209301 
loop_ 
_atom_site_label 
_atom_site_type_symbol 
_atom_site_fract_x 
_atom_site_fract_y 
_atom_site_fract_z 
_atom_site_charge 
O1          O  0.39243247  0.98835037  0.12884908    -0.82200
C2          C  0.50909164  0.89840496  0.12906505     0.97100
O3          O  0.51099350  0.93104171  0.13722461    -0.71300
O4          O  0.48029882  0.95322315  0.08354162    -0.74900
Al5        Al  0.47393539  0.96580069  0.12859768     1.49000
C6          C  0.45886087  0.96264535  0.06130337     0.92400
O7          O  0.40346433  0.90033324  0.08562731    -0.81100
O8          O  0.40364054  0.91238976  0.18617624    -0.74700
Al9        Al  0.39988677  0.94346915  0.10845899     1.90100
O10         O  0.41365947  0.86694337  0.13038842    -0.73800
O11         O  0.47067198  0.92492059  0.19423857    -0.73600
O12         O  0.48121859  0.88167706  0.13483508    -0.79300
O13         O  0.46987935  0.97939629  0.17414169    -0.77500
O14         O  0.43837259  0.93605166  0.13239346    -1.13600
O15         O  0.44509163  0.00761322  0.11655748    -0.72800
C16         C  0.41196353  0.01291962  0.11855197     0.97900
C17         C  0.40270836  0.87068395  0.09978367     0.94300
Al18       Al  0.44231216  0.89907798  0.15951292     1.55600
O19         O  0.42569814  0.96341075  0.06788196    -0.77400
C20         C  0.47422227  0.95845824  0.19875928     0.98500
C21         C  0.37287739  0.91435585  0.17498193     0.93300
O22         O  0.36772151  0.92415257  0.14408030    -0.82800
O23         O  0.09449486  0.01069726  0.37870725    -0.82200
C24         C  0.97815049  0.09908865  0.38066483     0.97100
O25         O  0.97646254  0.06644550  0.38811723    -0.71300
O26         O  0.00743317  0.04522236  0.33323772    -0.74900
Al27       Al  0.01342100  0.03213122  0.37822874     1.49000
C28         C  0.02940002  0.03583965  0.31096115     0.92400
O29         O  0.08405317  0.09915587  0.33696569    -0.81100
O30         O  0.08331797  0.08532039  0.43729798    -0.74700
Al31       Al  0.08749783  0.05545393  0.35880236     1.90100
O32         O  0.07407079  0.13128863  0.38296036    -0.73800
O33         O  0.01580090  0.07146703  0.44534794    -0.73600
O34         O  0.00588911  0.11602921  0.38670361    -0.79300
O35         O  0.01701106  0.01763552  0.42314153    -0.77500
O36         O  0.04884099  0.06214760  0.38289749    -1.13600
O37         O  0.04245644  0.99064721  0.36544936    -0.72800
C38         C  0.07550161  0.98575924  0.36796498     0.97900
C39         C  0.08695387  0.12809916  0.35278204     0.94300
Al40       Al  0.04458227  0.09853395  0.41108982     1.55600
O41         O  0.06240188  0.03505570  0.31799274    -0.77400
C42         C  0.01200003  0.03773149  0.44849408     0.98500
C43         C  0.11404473  0.08497801  0.42534812     0.93300
O44         O  0.11937417  0.07520585  0.39430599    -0.82800
O45         O  0.22135420  0.86877044  0.24531470    -0.82200
C46         C  0.15970007  0.73569003  0.25521683     0.97100
O47         O  0.19166543  0.73921943  0.26510808    -0.71300
O48         O  0.21667411  0.76965804  0.21392715    -0.74900
Al49       Al  0.21981182  0.78287184  0.25854973     1.49000
C50         C  0.21856722  0.78942828  0.18875329     0.92400
O51         O  0.14207687  0.82590129  0.20731762    -0.81100
O52         O  0.15125524  0.84526410  0.30720223    -0.74700
Al53       Al  0.18141483  0.84583521  0.22799067     1.90100
O54         O  0.10994632  0.82315958  0.25358196    -0.73800
O55         O  0.17355257  0.77878786  0.32101288    -0.73600
O56         O  0.13748411  0.75969424  0.26145285    -0.79300
O57         O  0.22683523  0.79268415  0.30464988    -0.77500
O58         O  0.18285619  0.81074041  0.25719918    -1.13600
O59         O  0.25404504  0.82105193  0.24859315    -0.72800
C60         C  0.25125635  0.85453935  0.24395073     0.97900
C61         C  0.11262551  0.82902521  0.22164570     0.94300
Al62       Al  0.14583320  0.80206330  0.28420214     1.55600
O63         O  0.20931357  0.82191218  0.19105665    -0.77400
C64         C  0.20658006  0.78041776  0.32703031     0.98500
C65         C  0.14647281  0.87412996  0.29155349     0.93300
O66         O  0.15374775  0.87676411  0.25959175    -0.82800
O67         O  0.86627021  0.91894764  0.12614687    -0.82200
C68         C  0.00741248  0.89824107  0.13879218     0.97100
O69         O  0.98037236  0.88105735  0.13099374    -0.71300
O70         O  0.91408212  0.86432993  0.13610463    -0.74900
Al71       Al  0.94105926  0.89782864  0.10762027     1.49000
C72         C  0.90386346  0.86690675  0.16717487     0.92400
O73         O  0.92131648  0.96080666  0.20133937    -0.81100
O74         O  0.94034511  0.00529802  0.15355563    -0.74700
Al75       Al  0.89761284  0.93946249  0.16072828     1.90100
O76         O  0.97655776  0.95175932  0.18692957    -0.73800
O77         O  0.96854746  0.97906584  0.09652566    -0.73600
O78         O  0.00887631  0.93117271  0.13263648    -0.79300
O79         O  0.96862735  0.92530863  0.07380291    -0.77500
O80         O  0.93632862  0.93395853  0.13629377    -1.13600
O81         O  0.90113861  0.91011953  0.08209833    -0.72800
C82         C  0.87064473  0.91005630  0.09491757     0.97900
C83         C  0.95403144  0.96036438  0.20895598     0.94300
Al84       Al  0.97102842  0.96466219  0.14162165     1.55600
O85         O  0.90359791  0.89629160  0.18240543    -0.77400
C86         C  0.97322247  0.95883060  0.07120374     0.98500
C87         C  0.90711630  0.00918196  0.15090307     0.93300
O88         O  0.88881267  0.98354920  0.14068350    -0.82800
O89         O  0.82634218  0.11768913  0.25641400    -0.82200
C90         C  0.82953299  0.25941294  0.26327179     0.97100
O91         O  0.85001548  0.23400787  0.25700091    -0.71300
O92         O  0.87291591  0.16959712  0.26578320    -0.74900
Al93       Al  0.83929763  0.19255583  0.23411315     1.49000
C94         C  0.86931740  0.16244939  0.29748321     0.92400
O95         O  0.77225140  0.17333971  0.32477524    -0.81100
O96         O  0.72969618  0.18166627  0.26996210    -0.74700
Al97       Al  0.79951538  0.14912008  0.28741527     1.90100
O98         O  0.77286394  0.22750354  0.30506546    -0.73800
O99         O  0.75834397  0.20903885  0.21457620    -0.73600
O100        O  0.79749631  0.25822485  0.25353292    -0.79300
O101        O  0.81304213  0.21682668  0.19726310    -0.77500
O102        O  0.80182912  0.18599442  0.26041668    -1.13600
O103        O  0.83175926  0.15037932  0.21017693    -0.72800
C104        C  0.83456051  0.12090638  0.22490819     0.97900
C105        C  0.76818242  0.20668608  0.32921912     0.94300
Al106      Al  0.76694306  0.21683898  0.26030361     1.55600
O107        O  0.83926161  0.16347056  0.31103140    -0.77400
C108        C  0.77992745  0.21649950  0.19142992     0.98500
C109        C  0.73073674  0.14782235  0.26992372     0.93300
O110        O  0.75960181  0.13221031  0.26530465    -0.82800
O111        O  0.18248990  0.37464188  0.25042398    -0.82200
C112        C  0.17279725  0.22937555  0.27781573     0.97100
O113        O  0.15783794  0.24348051  0.25245812    -0.71300
O114        O  0.12061566  0.29864181  0.27513690    -0.74900
Al115      Al  0.15668537  0.29217905  0.23901385     1.49000
C116        C  0.11838691  0.32417334  0.29641517     0.92400
O117        O  0.19660330  0.31841093  0.33225157    -0.81100
O118        O  0.26295107  0.31424510  0.25293663    -0.74700
Al119      Al  0.19072637  0.34511002  0.28986159     1.90100
O120        O  0.24260388  0.28955408  0.31311308    -0.73800
O121        O  0.23009421  0.25788820  0.22518165    -0.73600
O122        O  0.20268637  0.24006696  0.28770798    -0.79300
O123        O  0.18746903  0.28456619  0.19884998    -0.77500
O124        O  0.19267866  0.30538209  0.26529920    -1.13600
O125        O  0.14822718  0.33806374  0.22204428    -0.72800
C126        C  0.16025039  0.36886970  0.22679727     0.97900
C127        C  0.22212918  0.29724507  0.33698409     0.94300
Al128      Al  0.23094153  0.27753904  0.26894445     1.55600
O129        O  0.14347263  0.34511925  0.29943795    -0.77400
C130        C  0.21629193  0.26728769  0.19773399     0.98500
C131        C  0.26521147  0.34335977  0.26961151     0.93300
O132        O  0.23889472  0.35502513  0.28603830    -0.82800
O133        O  0.13105095  0.57373103  0.12929713    -0.82200
C134        C  0.98846299  0.59273115  0.14068184     0.97100
O135        O  0.01606602  0.61042032  0.13553602    -0.71300
O136        O  0.08384418  0.62784375  0.14075059    -0.74900
Al137      Al  0.05612396  0.59454469  0.11140408     1.49000
C138        C  0.09466215  0.62516544  0.17157707     0.92400
O139        O  0.07388742  0.53058970  0.20318076    -0.81100
O140        O  0.05781644  0.48587071  0.15321870    -0.74700
Al141      Al  0.09907572  0.55258489  0.16356351     1.90100
O142        O  0.01918056  0.53818022  0.18674407    -0.73800
O143        O  0.03122932  0.51332410  0.09590435    -0.73600
O144        O  0.98830773  0.55984462  0.13327472    -0.79300
O145        O  0.02834743  0.56790393  0.07631478    -0.77500
O146        O  0.06091750  0.55786191  0.13862206    -1.13600
O147        O  0.09587313  0.58212032  0.08566809    -0.72800
C148        C  0.12644355  0.58169514  0.09794045     0.97900
C149        C  0.04073339  0.53039489  0.20947390     0.94300
Al150      Al  0.02674878  0.52645485  0.14170459     1.55600
O151        O  0.09237128  0.59572791  0.18627774    -0.77400
C152        C  0.02449922  0.53435454  0.07189292     0.98500
C153        C  0.09122528  0.48238496  0.15156333     0.93300
O154        O  0.10946374  0.50865603  0.14302207    -0.82800
O155        O  0.89012078  0.48028766  0.37237450    -0.82200
C156        C  0.00723283  0.39103461  0.37521403     0.97100
O157        O  0.00987097  0.42429024  0.38116922    -0.71300
O158        O  0.97915420  0.44698442  0.32816380    -0.74900
Al159      Al  0.97271993  0.46006520  0.37308510     1.49000
C160        C  0.95804447  0.45657312  0.30576636     0.92400
O161        O  0.90670341  0.39302783  0.33043603    -0.81100
O162        O  0.90156917  0.41037094  0.43101135    -0.74700
Al163      Al  0.89971686  0.43621331  0.35231885     1.90100
O164        O  0.91113432  0.36183311  0.37718938    -0.73800
O165        O  0.96942988  0.42086660  0.44000896    -0.73600
O166        O  0.97899571  0.37530251  0.38199959    -0.79300
O167        O  0.96955504  0.47447247  0.41865363    -0.77500
O168        O  0.93748023  0.43041087  0.37740090    -1.13600
O169        O  0.94208977  0.50217760  0.36153782    -0.72800
C170        C  0.90846122  0.50621992  0.36341525     0.97900
C171        C  0.90170674  0.36441606  0.34590281     0.94300
Al172      Al  0.94044189  0.39452683  0.40574494     1.55600
O173        O  0.92500779  0.45776863  0.31240174    -0.77400
C174        C  0.97393725  0.45438419  0.44388601     0.98500
C175        C  0.87129994  0.40846006  0.41831162     0.93300
O176        O  0.86675540  0.41560148  0.38670136    -0.82800
O177        O  0.33446168  0.62049923  0.00422566    -0.82200
C178        C  0.33809700  0.76357408  0.01543504     0.97100
O179        O  0.35314420  0.73313134  0.50910102    -0.71300
O180        O  0.38218686  0.67240671  0.01411601    -0.74900
Al181      Al  0.34155801  0.69284336  0.48367603     1.49000
C182        C  0.38021368  0.66248799  0.04531339     0.92400
O183        O  0.28470775  0.67167522  0.07803040    -0.81100
O184        O  0.23880326  0.68385057  0.02667249    -0.74700
Al185      Al  0.30956065  0.64992634  0.03829711     1.90100
O186        O  0.28420504  0.72733837  0.06237205    -0.73800
O187        O  0.25974295  0.71258931  0.46833287    -0.73600
O188        O  0.30505294  0.76140846  0.00999142    -0.79300
O189        O  0.31369076  0.72005233  0.44934323    -0.77500
O190        O  0.31025488  0.68855084  0.01319477    -1.13600
O191        O  0.33438034  0.65238726  0.45624588    -0.72800
C192        C  0.33662658  0.62149657  0.46823421     0.97900
C193        C  0.27964645  0.70441763  0.08484717     0.94300
Al194      Al  0.27540017  0.71952180  0.01689430     1.55600
O195        O  0.35103561  0.66246384  0.06054723    -0.77400
C196        C  0.28028266  0.72222311  0.44497663     0.98500
C197        C  0.23918270  0.65007510  0.02456079     0.93300
O198        O  0.26765744  0.63411815  0.01822169    -0.82800
O199        O  0.73899283  0.35309168  0.50885006    -0.82200
C200        C  0.65789472  0.23197444  0.99888967     0.97100
O201        O  0.68921966  0.23171256  0.01052633    -0.71300
O202        O  0.70881272  0.26652432  0.46001896    -0.74900
Al203      Al  0.72063000  0.27084239  0.50481648     1.49000
C204        C  0.71433409  0.28980003  0.43803820     0.92400
O205        O  0.65234901  0.34119452  0.46652162    -0.81100
O206        O  0.65759265  0.33748741  0.05959103    -0.74700
Al207      Al  0.69509752  0.34523087  0.48848842     1.90100
O208        O  0.61816806  0.32543618  0.00107867    -0.73800
O209        O  0.67363862  0.26981768  0.06773225    -0.73600
O210        O  0.63822643  0.25815751  0.00506436    -0.79300
O211        O  0.72945727  0.27608510  0.05277442    -0.77500
O212        O  0.68848009  0.30478546  0.00758441    -1.13600
O213        O  0.76106170  0.30190064  0.49388812    -0.72800
C214        C  0.76454507  0.33528017  0.49748396     0.97900
C215        C  0.62305366  0.34150365  0.48135707     0.94300
Al216      Al  0.64962566  0.29787618  0.03176616     1.55600
O217        O  0.71523438  0.32247895  0.44670643    -0.77400
C218        C  0.70653176  0.26863642  0.07482070     0.98500
C219        C  0.65965877  0.36856655  0.04814640     0.93300
O220        O  0.67034739  0.37408352  0.01775715    -0.82800
O221        O  0.37028858  0.41805419  0.37203603    -0.82200
C222        C  0.51050265  0.39758526  0.39707920     0.97100
O223        O  0.48408625  0.37955501  0.38918052    -0.71300
O224        O  0.41695425  0.36287479  0.39059483    -0.74900
Al225      Al  0.44656967  0.39420881  0.36155864     1.49000
C226        C  0.40312855  0.36744292  0.42021031     0.92400
O227        O  0.42115507  0.46380089  0.44900315    -0.81100
O228        O  0.44318686  0.50558429  0.39948640    -0.74700
Al229      Al  0.39929010  0.44018123  0.40803542     1.90100
O230        O  0.47728268  0.45449779  0.43761723    -0.73800
O231        O  0.47326776  0.47440914  0.34539803    -0.73600
O232        O  0.51230809  0.42954448  0.38695883    -0.79300
O233        O  0.47647864  0.41913530  0.32696830    -0.77500
O234        O  0.43969121  0.43254729  0.38690079    -1.13600
O235        O  0.40945692  0.40459177  0.33239226    -0.72800
C236        C  0.37790208  0.40769974  0.34173400     0.97900
C237        C  0.45361200  0.46420759  0.45796956     0.94300
Al238      Al  0.47406528  0.46375340  0.39155825     1.55600
O239        O  0.40183577  0.39818883  0.43282876    -0.77400
C240        C  0.47883310  0.45260084  0.32145135     0.98500
C241        C  0.41023132  0.50940133  0.39471490     0.93300
O242        O  0.39271447  0.48315112  0.38472652    -0.82800
O243        O  0.26337951  0.13131628  0.49818768    -0.82200
C244        C  0.33761569  0.26137580  0.00153497     0.97100
O245        O  0.30622667  0.25945713  0.01365741    -0.71300
O246        O  0.27809289  0.22635127  0.46157028    -0.74900
Al247      Al  0.27140772  0.21657888  0.50632687     1.49000
C248        C  0.27602941  0.20558985  0.43685724     0.92400
O249        O  0.34866737  0.15967394  0.45931930    -0.81100
O250        O  0.34326748  0.15112729  0.05202649    -0.74700
Al251      Al  0.30578865  0.14808383  0.48057809     1.90100
O252        O  0.38155318  0.17062012  0.99407068    -0.73800
O253        O  0.32561591  0.21864953  0.06760911    -0.73600
O254        O  0.35856862  0.23573918  0.00488672    -0.79300
O255        O  0.27030450  0.20864380  0.05501909    -0.77500
O256        O  0.31046860  0.18723938  0.00444004    -1.13600
O257        O  0.23420937  0.18106843  0.49586401    -0.72800
C258        C  0.23496212  0.14719600  0.49339410     0.97900
C259        C  0.37723214  0.15799481  0.47515314     0.94300
Al260      Al  0.34949258  0.19378792  0.02821436     1.55600
O261        O  0.28231418  0.17244876  0.44077891    -0.77400
C262        C  0.29290827  0.21902688  0.07601683     0.98500
C263        C  0.34439707  0.12142035  0.03692258     0.93300
O264        O  0.33502950  0.11875586  0.00559230    -0.82800
O265        O  0.62741199  0.06785005  0.37661813    -0.82200
C266        C  0.48666764  0.09299770  0.39171453     0.97100
O267        O  0.51464761  0.10930908  0.38556096    -0.71300
O268        O  0.58234932  0.12346598  0.39029894    -0.74900
Al269      Al  0.55301322  0.09140867  0.36092792     1.49000
C270        C  0.59379374  0.11953670  0.42087220     0.92400
O271        O  0.57056265  0.02534711  0.45182604    -0.81100
O272        O  0.55098953  0.98266486  0.40313477    -0.74700
Al273      Al  0.59546842  0.04721045  0.41142948     1.90100
O274        O  0.51572451  0.03679661  0.43779102    -0.73800
O275        O  0.52459323  0.01132527  0.34689554    -0.73600
O276        O  0.48452036  0.06007100  0.38440888    -0.79300
O277        O  0.52391701  0.06558057  0.32641620    -0.77500
O278        O  0.55674528  0.05469892  0.38818670    -1.13600
O279        O  0.59108211  0.07701489  0.33427220    -0.72800
C280        C  0.62188001  0.07647194  0.34559967     0.97900
C281        C  0.53759243  0.02627974  0.45923919     0.94300
Al282      Al  0.52139907  0.02477886  0.39233261     1.55600
O283        O  0.59176378  0.08990754  0.43509779    -0.77400
C284        C  0.51985205  0.03201712  0.32225928     0.98500
C285        C  0.58421738  0.97841017  0.39993297     0.93300
O286        O  0.60252145  0.00367008  0.38916502    -0.82800
O287        O  0.66620264  0.87147178  0.00006854    -0.82200
C288        C  0.64981084  0.73031443  0.01683902     0.97100
O289        O  0.63793744  0.75727720  0.50481138    -0.71300
O290        O  0.61321252  0.82338160  0.01068494    -0.74900
Al291      Al  0.65251762  0.79866408  0.48333841     1.49000
C292        C  0.61452668  0.83422211  0.04166464     0.92400
O293        O  0.70799249  0.81986013  0.07725137    -0.81100
O294        O  0.75457215  0.80147313  0.02953054    -0.74700
Al295      Al  0.68674705  0.84210989  0.03600944     1.90100
O296        O  0.70109428  0.76407120  0.06304598    -0.73800
O297        O  0.73424652  0.77658316  0.46944716    -0.73600
O298        O  0.68277925  0.72931614  0.01054265    -0.79300
O299        O  0.68088132  0.77383561  0.44793004    -0.77500
O300        O  0.68344797  0.80247108  0.01217803    -1.13600
O301        O  0.66326933  0.84056674  0.46033295    -0.72800
C302        C  0.65904421  0.87009953  0.47501294     0.97900
C303        C  0.70853331  0.78697950  0.08484446     0.94300
Al304      Al  0.71502734  0.76881509  0.01821096     1.55600
O305        O  0.64329065  0.83514476  0.05731029    -0.77400
C306        C  0.71431922  0.77133321  0.44450105     0.98500
C307        C  0.75723833  0.83506246  0.02634978     0.93300
O308        O  0.73089551  0.85268503  0.01686240    -0.82800
O309        O  0.76232410  0.63639669  0.25339641    -0.82200
C310        C  0.83814796  0.76295043  0.25185712     0.97100
O311        O  0.80558822  0.76182979  0.25953982    -0.71300
O312        O  0.78241971  0.72797056  0.20805600    -0.74900
Al313      Al  0.77470618  0.72095965  0.25373574     1.49000
C314        C  0.77441189  0.70528356  0.18619165     0.92400
O315        O  0.84456078  0.65882498  0.20475933    -0.81100
O316        O  0.84043714  0.65504274  0.30588331    -0.74700
Al317      Al  0.80414271  0.64936662  0.23030319     1.90100
O318        O  0.87889238  0.67188226  0.24792910    -0.73800
O319        O  0.82054314  0.72174871  0.31675533    -0.73600
O320        O  0.85752714  0.73657498  0.25628474    -0.79300
O321        O  0.76525373  0.71711817  0.30001219    -0.77500
O322        O  0.80839484  0.68846307  0.25508548    -1.13600
O323        O  0.73579288  0.68718782  0.24528109    -0.72800
C324        C  0.73452865  0.65343929  0.24671864     0.97900
C325        C  0.87484054  0.66065218  0.21740985     0.94300
Al326      Al  0.84642925  0.69601049  0.28000935     1.55600
O327        O  0.77760572  0.67221816  0.19239790    -0.77400
C328        C  0.78742009  0.72467336  0.32264660     0.98500
C329        C  0.84280306  0.62473786  0.29256201     0.93300
O330        O  0.83078599  0.61909524  0.26254597    -0.82800
O331        O  0.60688955  0.51082971  0.12611263    -0.82200
C332        C  0.48306477  0.58971370  0.13019686     0.97100
O333        O  0.48333767  0.55663321  0.13616289    -0.71300
O334        O  0.51719962  0.53941397  0.08221071    -0.74900
Al335      Al  0.52329969  0.52521140  0.12693983     1.49000
C336        C  0.53991295  0.53467171  0.05944407     0.92400
O337        O  0.58718436  0.59924831  0.08914225    -0.81100
O338        O  0.58974788  0.58061256  0.18882814    -0.74700
Al339      Al  0.59522806  0.55523690  0.10865216     1.90100
O340        O  0.57533647  0.62843727  0.13672833    -0.73800
O341        O  0.52270145  0.56207635  0.19583810    -0.73600
O342        O  0.50910111  0.60790353  0.13952540    -0.79300
O343        O  0.52638876  0.50915440  0.17198719    -0.77500
O344        O  0.55627695  0.55746766  0.13333863    -1.13600
O345        O  0.55610158  0.48664629  0.11419548    -0.72800
C346        C  0.58942193  0.48417824  0.11721036     0.97900
C347        C  0.58598868  0.62779135  0.10571231     0.94300
Al348      Al  0.54933368  0.59218508  0.16324374     1.55600
O349        O  0.57263911  0.53504853  0.06693676    -0.77400
C350        C  0.52034949  0.52824693  0.19790033     0.98500
C351        C  0.62038793  0.58165163  0.17620609     0.93300
O352        O  0.62517830  0.57492276  0.14458273    -0.82800
C353        C  0.71063838  0.60156831  0.21507022    -0.06200
C354        C  0.70339553  0.63320769  0.23349903    -0.00300
C355        C  0.66802336  0.64547046  0.23537607    -0.08800
C356        C  0.64163341  0.62610434  0.21814992    -0.06200
C357        C  0.64945379  0.59608196  0.19772069    -0.00300
C358        C  0.68448112  0.58305066  0.19674980    -0.08700
C359        C  0.69426209  0.54945373  0.17709823     0.61600
H360        H  0.73762526  0.59222438  0.21354560     0.12300
H361        H  0.61472765  0.63585870  0.21861112     0.12300
C362        C  0.65790513  0.67913355  0.25464331     0.61900
F363        F  0.72880510  0.53920412  0.18302588    -0.23300
F364        F  0.69073603  0.55478258  0.14234621    -0.20600
F365        F  0.67246832  0.52200163  0.18714356    -0.20300
F366        F  0.66969463  0.70842442  0.23688521    -0.20400
F367        F  0.67269660  0.67899416  0.28688991    -0.20700
F368        F  0.62168280  0.68231521  0.25855261    -0.23400
C369        C  0.58103167  0.67082436  0.05911900    -0.06200
C370        C  0.59979854  0.65914952  0.08774188    -0.00300
C371        C  0.63520816  0.67006476  0.09207491    -0.08800
C372        C  0.65099521  0.69150036  0.06710281    -0.06200
C373        C  0.63239770  0.70325183  0.03846056    -0.00300
C374        C  0.59648664  0.69322501  0.03452735    -0.08700
C375        C  0.57464006  0.70517768  0.00422108     0.61600
H376        H  0.55430349  0.66135905  0.05573711     0.12300
H377        H  0.67255582  0.71327991  0.57505933     0.12300
C378        C  0.65707080  0.65759531  0.12191624     0.61900
F379        F  0.54403930  0.68548539  0.00103070    -0.23300
F380        F  0.59384247  0.70115900  0.97421994    -0.20600
F381        F  0.56510280  0.74041710  0.00842641    -0.20300
F382        F  0.66450874  0.62200438  0.11792302    -0.20400
F383        F  0.63882282  0.66350834  0.15212695    -0.20700
F384        F  0.67256541  0.69681453  0.63233676    -0.23400
C385        C  0.75628143  0.73179753  0.41458833    -0.06200
C386        C  0.73175626  0.75990177  0.41232357    -0.00300
C387        C  0.72898734  0.77903354  0.38150085    -0.08800
C388        C  0.74912592  0.76756866  0.35306987    -0.06200
C389        C  0.77288352  0.73878350  0.35513650    -0.00300
C390        C  0.77713860  0.72101895  0.38645850    -0.08700
C391        C  0.80289430  0.69034317  0.38975001     0.61600
H392        H  0.75901305  0.71833080  0.43882497     0.12300
H393        H  0.74631746  0.78086644  0.32875126     0.12300
C394        C  0.70617050  0.81213201  0.37917231     0.61900
F395        F  0.80254953  0.67617354  0.42233680    -0.23300
F396        F  0.83672094  0.70203099  0.38279570    -0.20600
F397        F  0.79421100  0.66367757  0.36685883    -0.20300
F398        F  0.71697070  0.83676559  0.40330190    -0.20400
F399        F  0.67124501  0.80361472  0.38515020    -0.20700
F400        F  0.70854033  0.82773984  0.34726364    -0.23400
C401        C  0.76046720  0.76178164  0.10996551    -0.06200
C402        C  0.72522831  0.77230089  0.11516192    -0.00300
C403        C  0.70494232  0.75580652  0.14090727    -0.08800
C404        C  0.72141460  0.73054059  0.16183734    -0.06200
C405        C  0.75664248  0.71997576  0.15645421    -0.00300
C406        C  0.77652353  0.73570348  0.13012080    -0.08700
C407        C  0.81449751  0.72466667  0.12347419     0.61600
H408        H  0.77498983  0.77308094  0.08869113     0.12300
H409        H  0.70705803  0.71919060  0.18318848     0.12300
C410        C  0.66611910  0.76470430  0.14577459     0.61900
F411        F  0.82842581  0.74121490  0.09490738    -0.23300
F412        F  0.81602389  0.68836693  0.11812817    -0.20600
F413        F  0.83519503  0.73330552  0.15127917    -0.20300
F414        F  0.64742335  0.75517642  0.11690786    -0.20400
F415        F  0.66220854  0.80080025  0.15131508    -0.20700
F416        F  0.65161847  0.74703449  0.17342594    -0.23400
C417        C  0.63150110  0.95915549  0.43863721    -0.06200
C418        C  0.60320449  0.94918505  0.41734716    -0.00300
C419        C  0.59374278  0.91312664  0.41499106    -0.08800
C420        C  0.61319719  0.88828332  0.43401117    -0.06200
C421        C  0.64108468  0.89848880  0.45570515    -0.00300
C422        C  0.65026097  0.93462503  0.45837862    -0.08700
C423        C  0.69041999  0.93851524  0.96339237     0.61600
H424        H  0.63837571  0.98704351  0.44067571     0.12300
H425        H  0.60619718  0.86038358  0.43256556     0.12300
C426        C  0.56418699  0.90094910  0.39180651     0.61900
F427        F  0.70082138  0.97249277  0.95464879    -0.23300
F428        F  0.71698618  0.91528703  0.95346413    -0.20600
F429        F  0.68643892  0.93749015  0.99852778    -0.20300
F430        F  0.57066929  0.91233701  0.35878934    -0.20400
F431        F  0.53237964  0.91485037  0.40315813    -0.20700
F432        F  0.56126075  0.86432049  0.39113740    -0.23400
C433        C  0.42639296  0.16338528  0.43327009    -0.06200
C434        C  0.40792052  0.14225140  0.45667557    -0.00300
C435        C  0.41467934  0.10512775  0.45717819    -0.08800
C436        C  0.43938110  0.09049555  0.43437928    -0.06200
C437        C  0.45820661  0.11135154  0.41128805    -0.00300
C438        C  0.45209154  0.14874673  0.41085051    -0.08700
C439        C  0.47198693  0.17319695  0.38676796     0.61600
H440        H  0.42032432  0.19150970  0.43261195     0.12300
H441        H  0.44469239  0.06223640  0.43492586     0.12300
C442        C  0.39556675  0.08046067  0.48116687     0.61900
F443        F  0.45752235  0.20700845  0.38642937    -0.23300
F444        F  0.47096259  0.15983296  0.35374147    -0.20600
F445        F  0.50667006  0.17619972  0.39710600    -0.20300
F446        F  0.36060668  0.07857592  0.47181887    -0.20400
F447        F  0.39887274  0.09309288  0.51410416    -0.20700
F448        F  0.40918047  0.04628494  0.48038013    -0.23400
C449        C  0.52496431  0.47621956  0.23690930    -0.06200
C450        C  0.50953590  0.50965122  0.23001742    -0.00300
C451        C  0.48203074  0.52209192  0.25164134    -0.08800
C452        C  0.47181277  0.50125957  0.27982207    -0.06200
C453        C  0.48803937  0.46848569  0.28753613    -0.00300
C454        C  0.51488569  0.45547349  0.26542074    -0.08700
C455        C  0.53351729  0.42055228  0.27234987     0.61600
H456        H  0.54545802  0.46656445  0.21981391     0.12300
H457        H  0.45118180  0.51096070  0.29675771     0.12300
C458        C  0.46305223  0.55692096  0.24492433     0.61900
F459        F  0.55994593  0.41361207  0.24859548    -0.23300
F460        F  0.50950884  0.39304358  0.27085798    -0.20600
F461        F  0.54867739  0.42151096  0.30444775    -0.20300
F462        F  0.45048753  0.55735722  0.21176833    -0.20400
F463        F  0.48609364  0.58486668  0.24966682    -0.20700
F464        F  0.43458097  0.56197409  0.26680064    -0.23400
C465        C  0.47326252  0.51777619  0.48684959    -0.06200
C466        C  0.46702282  0.48107407  0.48924803    -0.00300
C467        C  0.50370599  0.46487589  0.00434199    -0.08800
C468        C  0.52873455  0.48437156  0.02275257    -0.06200
C469        C  0.52570619  0.52107540  0.02703954    -0.00300
C470        C  0.49827786  0.53951713  0.00997353    -0.08700
C471        C  0.50446517  0.57457991  0.50433012     0.61600
H472        H  0.45885549  0.53277863  0.46787244     0.12300
H473        H  0.54913269  0.47024292  0.03662837     0.12300
C474        C  0.50852301  0.42497550  0.00322074     0.61900
F475        F  0.48513113  0.58918703  0.47794419    -0.23300
F476        F  0.53976756  0.58168969  0.49848737    -0.20600
F477        F  0.49079693  0.59188096  0.04386259    -0.20300
F478        F  0.47931895  0.40784112  0.99030943    -0.20400
F479        F  0.51403688  0.41241195  0.03595445    -0.20700
F480        F  0.53768098  0.41678239  0.98324208    -0.23400
C481        C  0.36284989  0.27878195  0.45009898    -0.06200
C482        C  0.34979073  0.28828065  0.48264339    -0.00300
C483        C  0.35618543  0.32260723  0.49539299    -0.08800
C484        C  0.37457681  0.34685385  0.47450583    -0.06200
C485        C  0.38666747  0.33808712  0.44099406    -0.00300
C486        C  0.38049423  0.30307583  0.42863027    -0.08700
C487        C  0.39200565  0.29094593  0.39314837     0.61600
H488        H  0.35911734  0.25162078  0.44165296     0.12300
H489        H  0.37935205  0.37322041  0.48450610     0.12300
C490        C  0.34438324  0.33303126  0.53123481     0.61900
F491        F  0.38226944  0.25621051  0.38641224    -0.23300
F492        F  0.42826378  0.29292391  0.39021695    -0.20600
F493        F  0.37659040  0.31214669  0.36867328    -0.20300
F494        F  0.35313600  0.31545824  0.05228019    -0.20400
F495        F  0.30796895  0.33196715  0.53327303    -0.20700
F496        F  0.35524574  0.36692314  0.53998894    -0.23400
C497        C  0.56088645  0.34072132  0.46232350    -0.06200
C498        C  0.59333234  0.35802714  0.46269646    -0.00300
C499        C  0.59788957  0.38925833  0.44272927    -0.08800
C500        C  0.57048106  0.40029391  0.42127978    -0.06200
C501        C  0.53847463  0.38204039  0.41934565    -0.00300
C502        C  0.53326767  0.35181092  0.44087294    -0.08700
C503        C  0.49900149  0.33108679  0.44193962     0.61600
H504        H  0.55776541  0.31761037  0.47835353     0.12300
H505        H  0.57410960  0.42350807  0.40546359     0.12300
C506        C  0.63094142  0.41201281  0.44450785     0.61900
F507        F  0.48870493  0.31790348  0.90426151    -0.23300
F508        F  0.47155223  0.35357284  0.45080869    -0.20600
F509        F  0.49970971  0.30403230  0.46577770    -0.20300
F510        F  0.65862369  0.39531889  0.42768633    -0.20400
F511        F  0.63968168  0.41821044  0.47827398    -0.20700
F512        F  0.62606448  0.44476288  0.42929162    -0.23400
C513        C  0.61577673  0.39060766  0.09013265    -0.06200
C514        C  0.64554147  0.39786564  0.06955302    -0.00300
C515        C  0.65941043  0.43259556  0.06889803    -0.08800
C516        C  0.64095462  0.45952977  0.08644043    -0.06200
C517        C  0.60935613  0.45283890  0.10452058    -0.00300
C518        C  0.59737272  0.41761299  0.10775227    -0.08700
C519        C  0.56563561  0.40851113  0.12977584     0.61600
H520        H  0.60584220  0.36369167  0.09101862     0.12300
H521        H  0.65030039  0.48659696  0.08453594     0.12300
C522        C  0.69324312  0.44145025  0.04973260     0.61900
F523        F  0.56269749  0.37224894  0.13455938    -0.23300
F524        F  0.53511547  0.42037868  0.11434237    -0.20600
F525        F  0.56882142  0.42437228  0.16162962    -0.20300
F526        F  0.68707975  0.44156565  0.01491430    -0.20400
F527        F  0.71913694  0.41666666  0.05703477    -0.20700
F528        F  0.70596685  0.47454610  0.05893448    -0.23400
C529        C  0.65534979  0.17190870  0.47990795    -0.06200
C530        C  0.63744705  0.20437777  0.48319749    -0.00300
C531        C  0.60521084  0.20900103  0.46467274    -0.08800
C532        C  0.59282288  0.18120983  0.44355981    -0.06200
C533        C  0.61054304  0.14879363  0.44083793    -0.00300
C534        C  0.64246771  0.14390203  0.45949592    -0.08700
C535        C  0.66379931  0.10966518  0.45752645     0.61600
H536        H  0.67964705  0.16844659  0.49384390     0.12300
H537        H  0.56852375  0.18417631  0.42955049     0.12300
C538        C  0.61012205  0.24600894  0.93818885     0.61900
F539        F  0.69635429  0.11289887  0.47310458    -0.23300
F540        F  0.66980857  0.10066513  0.42372458    -0.20600
F541        F  0.64591209  0.08262206  0.47381373    -0.20300
F542        F  0.63936757  0.26758075  0.93548927    -0.20400
F543        F  0.58685523  0.25978546  0.96213993    -0.20700
F544        F  0.59347903  0.24610582  0.90675355    -0.23400
C545        C  0.35850914  0.53264941  0.42626602    -0.06200
C546        C  0.39027791  0.54043242  0.40888001    -0.00300
C547        C  0.40250994  0.57586130  0.40866111    -0.08800
C548        C  0.38337709  0.60177597  0.42746224    -0.06200
C549        C  0.35296753  0.59320671  0.44669190    -0.00300
C550        C  0.33983960  0.55822499  0.44545356    -0.08700
C551        C  0.30647078  0.54764636  0.46447651     0.61600
H552        H  0.34911738  0.50556528  0.42635934     0.12300
H553        H  0.39282620  0.62886741  0.42828310     0.12300
C554        C  0.43478492  0.58646526  0.38801465     0.61900
F555        F  0.29504282  0.51419578  0.45483485    -0.23300
F556        F  0.27962920  0.57151651  0.45763345    -0.20600
F557        F  0.31281219  0.54722456  0.49926414    -0.20300
F558        F  0.43093820  0.57532062  0.35445310    -0.20400
F559        F  0.46475840  0.57117171  0.40156719    -0.20700
F560        F  0.43836281  0.62765610  0.88544441    -0.23400
C561        C  0.45798119  0.64462532  0.10406724    -0.06200
C562        C  0.45449151  0.60768881  0.10984954    -0.00300
C563        C  0.42667189  0.58942063  0.09289033    -0.08800
C564        C  0.40534456  0.60833081  0.06972542    -0.06200
C565        C  0.40951922  0.64479622  0.06369073    -0.00300
C566        C  0.43556021  0.66350550  0.08187054    -0.08700
C567        C  0.43939621  0.70323614  0.07782473     0.61600
H568        H  0.47874506  0.65896268  0.11699744     0.12300
H569        H  0.38412297  0.59484258  0.05657360     0.12300
C570        C  0.41861275  0.55046637  0.09901891     0.61900
F571        F  0.46583827  0.71691020  0.09827315    -0.23300
F572        F  0.40807561  0.72007896  0.08658051    -0.20600
F573        F  0.44768396  0.71048801  0.04418487    -0.20300
F574        F  0.41494278  0.54437394  0.13371740    -0.20400
F575        F  0.44534690  0.52947491  0.08570079    -0.20700
F576        F  0.38750261  0.54012193  0.08352887    -0.23400
C577        C  0.91019065  0.56848979  0.34152760    -0.06200
C578        C  0.88989691  0.53869015  0.34985214    -0.00300
C579        C  0.85298627  0.53940825  0.34145068    -0.08800
C580        C  0.83969738  0.56713892  0.32130779    -0.06200
C581        C  0.86020097  0.59610247  0.31237427    -0.00300
C582        C  0.89564952  0.59797354  0.32435747    -0.08700
C583        C  0.91870279  0.63021932  0.31838228     0.61600
H584        H  0.93780053  0.56844567  0.34846462     0.12300
H585        H  0.81245732  0.56701477  0.31304097     0.12300
C586        C  0.82653031  0.51236544  0.35421325     0.61900
F587        F  0.95166755  0.62656596  0.33303162    -0.23300
F588        F  0.90325959  0.66006657  0.33279589    -0.20600
F589        F  0.92344881  0.63494941  0.28373175    -0.20300
F590        F  0.83016811  0.50888987  0.38908275    -0.20400
F591        F  0.83161088  0.48018986  0.33784282    -0.20700
F592        F  0.79198371  0.52269868  0.34835522    -0.23400
C593        C  0.85319004  0.36074203  0.45765058    -0.06200
C594        C  0.84357597  0.39173149  0.43978913    -0.00300
C595        C  0.80919023  0.40545672  0.44380203    -0.08800
C596        C  0.78516517  0.38706454  0.46462229    -0.06200
C597        C  0.79408327  0.35497210  0.48106364    -0.00300
C598        C  0.82894198  0.34182927  0.47797648    -0.08700
C599        C  0.83870631  0.30703760  0.99849934     0.61600
H600        H  0.87975752  0.35054771  0.45446330     0.12300
H601        H  0.75850740  0.39714852  0.46700769     0.12300
C602        C  0.79843851  0.44005068  0.42741181     0.61900
F603        F  0.87499439  0.30376388  0.00103281    -0.23300
F604        F  0.82653249  0.28071895  0.97680967    -0.20600
F605        F  0.82458915  0.30231055  0.03087616    -0.20300
F606        F  0.79988020  0.43674032  0.39219361    -0.20400
F607        F  0.82123913  0.46630993  0.43816054    -0.20700
F608        F  0.76448482  0.45020965  0.43647445    -0.23400
C609        C  0.96447541  0.64264018  0.17573757    -0.06200
C610        C  0.95773517  0.61078974  0.15758635    -0.00300
C611        C  0.92288185  0.59718874  0.15752071    -0.08800
C612        C  0.89705766  0.61449629  0.17763562    -0.06200
C613        C  0.90432478  0.64536088  0.19686503    -0.00300
C614        C  0.93820879  0.66052837  0.19487194    -0.08700
C615        C  0.94622733  0.69606082  0.21157968     0.61600
H616        H  0.99092733  0.65338360  0.17544280     0.12300
H617        H  0.87071584  0.60349274  0.17893600     0.12300
C618        C  0.91237628  0.56515522  0.13606988     0.61900
F619        F  0.94585757  0.69278377  0.24675074    -0.23300
F620        F  0.92118404  0.72087379  0.20201339    -0.20600
F621        F  0.97902583  0.70869187  0.20187594    -0.20300
F622        F  0.92692247  0.53460857  0.14955526    -0.20400
F623        F  0.92393757  0.56941627  0.10269984    -0.20700
F624        F  0.87611444  0.56081745  0.13523269    -0.23400
C625        C  0.98618202  0.50951482  0.47807478    -0.06200
C626        C  0.98526634  0.47186306  0.47704664    -0.00300
C627        C  0.99585518  0.45335542  0.50677068    -0.08800
C628        C  0.98652552  0.48932236  0.04377678    -0.06200
C629        C  0.01002921  0.51805800  0.03990791    -0.00300
C630        C  0.02100569  0.52749483  0.00658495    -0.08700
C631        C  0.04478681  0.55919364  0.00060753     0.61600
H632        H  0.97785107  0.52394924  0.45567891     0.12300
H633        H  0.97767912  0.48276120  0.06934801     0.12300
C634        C  0.99546532  0.41305022  0.50845107     0.61900
F635        F  0.05351952  0.56299307  0.96639447    -0.23300
F636        F  0.07572262  0.55523259  0.01877952    -0.20600
F637        F  0.02768932  0.58987981  0.01123311    -0.20300
F638        F  0.01759460  0.39907003  0.48352656    -0.20400
F639        F  0.96149563  0.40079350  0.50355581    -0.20700
F640        F  0.00688055  0.40056824  0.53974759    -0.23400
C641        C  0.96891665  0.50888077  0.27130784    -0.06200
C642        C  0.97488784  0.47249823  0.27558614    -0.00300
C643        C  0.00621448  0.45706563  0.26168101    -0.08800
C644        C  0.03080580  0.47873250  0.24486072    -0.06200
C645        C  0.02449714  0.51497677  0.24008644    -0.00300
C646        C  0.99339561  0.53049050  0.25426170    -0.08700
C647        C  0.98529343  0.56993480  0.25306978     0.61600
H648        H  0.94621382  0.52116086  0.28368253     0.12300
H649        H  0.05388375  0.46661429  0.23299470     0.12300
C650        C  0.01531274  0.41800271  0.26511423     0.61900
F651        F  0.98314737  0.58277652  0.28619179    -0.23300
F652        F  0.95320142  0.57528018  0.23719325    -0.20600
F653        F  0.01079393  0.58929894  0.23605577    -0.20300
F654        F  0.98670468  0.39804851  0.27559832    -0.20400
F655        F  0.04230952  0.41438399  0.28846717    -0.20700
F656        F  0.02660335  0.40448366  0.23394931    -0.23400
C657        C  0.21688504  0.59961565  0.05826732    -0.06200
C658        C  0.20891155  0.62847158  0.03671999    -0.00300
C659        C  0.17328949  0.63771175  0.03135833    -0.08800
C660        C  0.14721701  0.62069869  0.05109376    -0.06200
C661        C  0.15563980  0.59465756  0.07567854    -0.00300
C662        C  0.19091669  0.58276177  0.07820011    -0.08700
C663        C  0.20148950  0.55315236  0.10226907     0.61600
H664        H  0.24424912  0.59214897  0.06168211     0.12300
H665        H  0.11996361  0.62885477  0.04833096     0.12300
C666        C  0.16278997  0.66428537  0.00415977     0.61900
F667        F  0.23547249  0.54121833  0.09568796    -0.23300
F668        F  0.17896932  0.52458548  0.09849809    -0.20600
F669        F  0.20005848  0.56534357  0.13568651    -0.20300
F670        F  0.12050216  0.65551639  0.49149250    -0.20400
F671        F  0.17828865  0.65477450  0.97327751    -0.20700
F672        F  0.17357333  0.69802814  0.01320553    -0.23400
C673        C  0.35722193  0.36240063  0.30057813    -0.06200
C674        C  0.35078166  0.39502900  0.31738903    -0.00300
C675        C  0.32007305  0.41438673  0.30946300    -0.08800
C676        C  0.29485939  0.39837269  0.28811112    -0.06200
C677        C  0.29867845  0.36310522  0.27580809    -0.00300
C678        C  0.33167853  0.34595068  0.27982802    -0.08700
C679        C  0.33951245  0.30984906  0.26409503     0.61600
H680        H  0.38182536  0.34867275  0.30557639     0.12300
H681        H  0.27022498  0.41221252  0.28353068     0.12300
C682        C  0.31393020  0.45154178  0.32355049     0.63500
F683        F  0.37483965  0.30088123  0.26690286    -0.23300
F684        F  0.33126401  0.31020208  0.22966965    -0.20600
F685        F  0.31998462  0.28402758  0.28043933    -0.20300
F686        F  0.34272067  0.47266233  0.31607307    -0.20400
F687        F  0.30921016  0.45027069  0.35861403    -0.20700
F688        F  0.28431920  0.46724787  0.30951236    -0.23400
C689        C  0.26351250  0.23145713  0.16867871    -0.06200
C690        C  0.23608495  0.25701900  0.16544166    -0.00300
C691        C  0.23132400  0.27301282  0.13299710    -0.08800
C692        C  0.25243658  0.26123739  0.10512180    -0.06200
C693        C  0.27861951  0.23475241  0.10839098    -0.00300
C694        C  0.28486358  0.22023064  0.14091886    -0.08700
C695        C  0.31239910  0.19145651  0.14594884     0.61600
H696        H  0.26782318  0.21931674  0.19331339     0.12300
H697        H  0.24801938  0.27209231  0.07989992     0.12300
C698        C  0.20460701  0.30251163  0.12752230     0.61900
F699        F  0.31649285  0.18301439  0.18014130    -0.23300
F700        F  0.34472240  0.20265064  0.13358616    -0.20600
F701        F  0.30229844  0.16116826  0.12854056    -0.20300
F702        F  0.21166177  0.33058654  0.14938848    -0.20400
F703        F  0.17093483  0.29001876  0.13370718    -0.20700
F704        F  0.20564927  0.31522535  0.09435598    -0.23400
C705        C  0.21345427  0.24633177  0.37377405    -0.06200
C706        C  0.23025515  0.27912347  0.36890405    -0.00300
C707        C  0.26430392  0.28418859  0.38235743    -0.08800
C708        C  0.28124311  0.25585982  0.39860970    -0.06200
C709        C  0.26408739  0.22347817  0.40524186    -0.00300
C710        C  0.22970108  0.21847897  0.39202952    -0.08700
C711        C  0.21000704  0.18427750  0.39778971     0.61600
H712        H  0.18825932  0.24206983  0.36154176     0.12300
H713        H  0.30721002  0.26012975  0.40884406     0.12300
C714        C  0.28465062  0.31839513  0.37714311     0.61900
F715        F  0.17854747  0.18323551  0.38006419    -0.23300
F716        F  0.20230322  0.18133837  0.43202417    -0.20600
F717        F  0.23056633  0.15577496  0.38728002    -0.20300
F718        F  0.26286562  0.34633144  0.36803401    -0.20400
F719        F  0.30942397  0.31316268  0.35156920    -0.20700
F720        F  0.30159845  0.32795682  0.40703401    -0.23400
C721        C  0.09593770  0.34992409  0.35053370    -0.06200
C722        C  0.08769243  0.33235564  0.31945877    -0.00300
C723        C  0.05200458  0.33061856  0.30943295    -0.08800
C724        C  0.02637563  0.34867065  0.32960608    -0.06200
C725        C  0.03567661  0.37002975  0.35801532    -0.00300
C726        C  0.07086687  0.36972642  0.36932811    -0.08700
C727        C  0.08192505  0.39021766  0.40100764     0.61600
H728        H  0.12314388  0.35016908  0.35883421     0.12300
H729        H  0.99894065  0.34800737  0.32208288     0.12300
C730        C  0.04136682  0.31158556  0.27686478     0.61900
F731        F  0.11674064  0.38361945  0.40949261    -0.23300
F732        F  0.06100242  0.38050361  0.42845462    -0.20600
F733        F  0.07827019  0.42624943  0.39542372    -0.20300
F734        F  0.05121175  0.27624954  0.27864827    -0.20400
F735        F  0.05782418  0.32710186  0.24906281    -0.20700
F736        F  0.00528918  0.31309733  0.27172761    -0.23400
C737        C  0.11260345  0.39122921  0.18898609    -0.06200
C738        C  0.14535370  0.39785133  0.20501202    -0.00300
C739        C  0.16166012  0.43116560  0.19983670    -0.08800
C740        C  0.14372251  0.45693745  0.18044130    -0.06200
C741        C  0.11003731  0.45094700  0.16613854    -0.00300
C742        C  0.09479068  0.41695348  0.16948053    -0.08700
C743        C  0.06046026  0.40728042  0.15190578     0.61600
H744        H  0.10017625  0.36570454  0.19259200     0.12300
H745        H  0.15549065  0.48289811  0.17776292     0.12300
C746        C  0.19751452  0.43999920  0.21481008     0.61900
F747        F  0.05372012  0.37122747  0.15368057    -0.23300
F748        F  0.06238620  0.41638398  0.11771324    -0.20600
F749        F  0.03244647  0.42495298  0.16717175    -0.20300
F750        F  0.22166995  0.41373569  0.20620929    -0.20400
F751        F  0.19482647  0.44279539  0.25002748    -0.20700
F752        F  0.21043163  0.47187315  0.20259650    -0.23400
C753        C  0.64029295  0.11862385  0.30068466    -0.06200
C754        C  0.64984959  0.09060101  0.32277473    -0.00300
C755        C  0.68476992  0.07768034  0.32204614    -0.08800
C756        C  0.70970638  0.09560155  0.30188200    -0.06200
C757        C  0.70088690  0.12597398  0.28255090    -0.00300
C758        C  0.66521056  0.13636074  0.28024932    -0.08700
C759        C  0.65346276  0.16630550  0.25705470     0.61600
H760        H  0.61321043  0.12785097  0.30063894     0.12300
H761        H  0.73698263  0.08716777  0.30311616     0.12300
C762        C  0.69603192  0.04563507  0.34268610     0.61900
F763        F  0.61737376  0.16562480  0.25186063    -0.23300
F764        F  0.66983981  0.16309598  0.22544600    -0.20600
F765        F  0.66195893  0.19874036  0.27146899    -0.20300
F766        F  0.67177815  0.01853795  0.33902257    -0.20400
F767        F  0.69846050  0.05495199  0.37680942    -0.20700
F768        F  0.72856937  0.03274589  0.33199775    -0.23400
C769        C  0.76119974  0.26520028  0.15459039    -0.06200
C770        C  0.76428082  0.22844327  0.15917101    -0.00300
C771        C  0.74398788  0.20507216  0.13871151    -0.08800
C772        C  0.72289690  0.21937195  0.11258604    -0.06200
C773        C  0.72025091  0.25613247  0.10773583    -0.00300
C774        C  0.73900865  0.27950400  0.12941673    -0.08700
C775        C  0.73453431  0.31943056  0.12641408     0.61600
H776        H  0.77519586  0.28266566  0.17190737     0.12300
H777        H  0.70900793  0.20195521  0.09516100     0.12300
C778        C  0.74493726  0.16520264  0.14444734     0.61900
F779        F  0.75136788  0.33737546  0.15263383    -0.23300
F780        F  0.69901467  0.32795222  0.12794974    -0.20600
F781        F  0.74835727  0.33103542  0.09566031    -0.20300
F782        F  0.73144168  0.15727797  0.17643055    -0.20400
F783        F  0.77938186  0.15310372  0.14228744    -0.20700
F784        F  0.72514605  0.14707676  0.12041114    -0.23400
C785        C  0.77178736  0.25712552  0.36786782    -0.06200
C786        C  0.75564679  0.22426996  0.36074552    -0.00300
C787        C  0.72221885  0.21701823  0.37508180    -0.08800
C788        C  0.70631230  0.24292889  0.39605307    -0.06200
C789        C  0.72298851  0.27543952  0.40384406    -0.00300
C790        C  0.75496892  0.28376044  0.38714555    -0.08700
C791        C  0.77264476  0.31968233  0.38917419     0.61600
H792        H  0.79687449  0.26310274  0.35570629     0.12300
H793        H  0.68141443  0.23706045  0.40858046     0.12300
C794        C  0.70285404  0.18283962  0.36748683     0.61900
F795        F  0.78775731  0.32803040  0.35790371    -0.23300
F796        F  0.79888386  0.31842323  0.41335119    -0.20600
F797        F  0.74904999  0.34657288  0.39708637    -0.20300
F798        F  0.72433640  0.15399106  0.37421871    -0.20400
F799        F  0.69341400  0.18250180  0.33358167    -0.20700
F800        F  0.67241676  0.17953228  0.38696332    -0.23400
C801        C  0.86186156  0.34773768  0.29807719    -0.06200
C802        C  0.88154689  0.33651555  0.32691617    -0.00300
C803        C  0.88113657  0.30015406  0.33572382    -0.08800
C804        C  0.86205213  0.27651761  0.31487850    -0.06200
C805        C  0.84367098  0.28775302  0.28557984    -0.00300
C806        C  0.84325256  0.32390365  0.27705282    -0.08700
C807        C  0.82471491  0.33679371  0.24510841     0.61600
H808        H  0.86138603  0.37563548  0.29159376     0.12300
H809        H  0.86180221  0.24847648  0.32098878     0.12300
C810        C  0.90130872  0.28599491  0.36618499     0.61900
F811        F  0.82894287  0.37292672  0.24036559    -0.23300
F812        F  0.78899207  0.32990820  0.24761798    -0.20600
F813        F  0.83837340  0.31938596  0.21666948    -0.20300
F814        F  0.88689409  0.29963195  0.39610633    -0.20400
F815        F  0.93642211  0.29562987  0.36368920    -0.20700
F816        F  0.89994267  0.24932033  0.36796167    -0.23400
C817        C  0.77932218  0.88398604  0.06262560    -0.06200
C818        C  0.78759755  0.85536087  0.04053103    -0.00300
C819        C  0.82334960  0.84772157  0.03331226    -0.08800
C820        C  0.84961706  0.86745943  0.05042923    -0.06200
C821        C  0.84124232  0.89474084  0.07422922    -0.00300
C822        C  0.80539727  0.90414803  0.07923398    -0.08700
C823        C  0.79431822  0.93539869  0.10165556     0.61600
H824        H  0.75179984  0.89001739  0.06769404     0.12300
H825        H  0.87710446  0.86070369  0.04615052     0.12300
C826        C  0.83665547  0.81819775  0.51236209     0.61900
F827        F  0.76007479  0.94598900  0.09479936    -0.23300
F828        F  0.81610205  0.96413224  0.09572573    -0.20600
F829        F  0.79606694  0.92618589  0.13576886    -0.20300
F830        F  0.82013221  0.82095587  0.48101903    -0.20400
F831        F  0.82698397  0.78671873  0.52775601    -0.20700
F832        F  0.87271352  0.81716779  0.50650415    -0.23400
C833        C  0.90287938  0.83086017  0.21924600    -0.06200
C834        C  0.88916272  0.83690522  0.18647227    -0.00300
C835        C  0.85682017  0.82102054  0.17709619    -0.08800
C836        C  0.83947580  0.79921478  0.20067941    -0.06200
C837        C  0.85347382  0.79267367  0.23299489    -0.00300
C838        C  0.88560111  0.80870533  0.24275819    -0.08700
C839        C  0.90087610  0.80327410  0.27816322     0.61600
H840        H  0.92697262  0.84427481  0.22649054     0.12300
H841        H  0.81494426  0.78655740  0.19381044     0.12300
C842        C  0.83908114  0.82924739  0.14357933     0.61900
F843        F  0.92776955  0.82703759  0.28493730    -0.23300
F844        F  0.91439683  0.76928203  0.28085903    -0.20600
F845        F  0.87478418  0.80824316  0.30266619    -0.20300
F846        F  0.86165361  0.82205591  0.11649244    -0.20400
F847        F  0.82941977  0.86441590  0.14370323    -0.20700
F848        F  0.80882117  0.80968860  0.13895821    -0.23400
C849        C  0.85606701  0.03201113  0.18378499    -0.06200
C850        C  0.88833061  0.03964497  0.16709045    -0.00300
C851        C  0.90224407  0.07434125  0.16918379    -0.08800
C852        C  0.88350012  0.09997800  0.18837345    -0.06200
C853        C  0.85186830  0.09187343  0.20568969    -0.00300
C854        C  0.83762442  0.05751017  0.20323570    -0.08700
C855        C  0.80274506  0.04811608  0.22021103     0.61600
H856        H  0.84566130  0.00532857  0.18238969     0.12300
H857        H  0.89384381  0.12666674  0.19059592     0.12300
C858        C  0.93606234  0.08458229  0.15077544     0.61900
F859        F  0.79254244  0.01370560  0.21265702    -0.23300
F860        F  0.77661409  0.07088621  0.20893135    -0.20600
F861        F  0.80560029  0.05107744  0.25534963    -0.20300
F862        F  0.93413015  0.07461264  0.11671917    -0.20400
F863        F  0.96463210  0.06798631  0.16568458    -0.20700
F864        F  0.94180714  0.12084324  0.15213769    -0.23400
C865        C  0.13247947  0.64491178  0.22041562    -0.06200
C866        C  0.11277697  0.65458817  0.19103756    -0.00300
C867        C  0.11172872  0.69095719  0.18188265    -0.08800
C868        C  0.12894693  0.71593326  0.20304557    -0.06200
C869        C  0.14739598  0.70615474  0.23281100    -0.00300
C870        C  0.14959072  0.67004431  0.24149173    -0.08700
C871        C  0.16832277  0.65845707  0.27376172     0.61600
H872        H  0.13415769  0.61719041  0.22729496     0.12300
H873        H  0.12775220  0.74387734  0.19672000     0.12300
C874        C  0.09228715  0.70374585  0.15041723     0.61900
F875        F  0.16749552  0.62198599  0.27783308    -0.23300
F876        F  0.15217494  0.67400960  0.30196771    -0.20600
F877        F  0.20326562  0.66879460  0.27247290    -0.20300
F878        F  0.05731776  0.69347577  0.15215560    -0.20400
F879        F  0.10791657  0.68950901  0.12132827    -0.20700
F880        F  0.09303923  0.74036079  0.14754910    -0.23400
C881        C  0.25726784  0.74921775  0.35327742    -0.06200
C882        C  0.22371182  0.76516009  0.35803250    -0.00300
C883        C  0.20936464  0.76713286  0.39140046    -0.08800
C884        C  0.22954567  0.75388120  0.41876902    -0.06200
C885        C  0.26314733  0.73783783  0.41403371    -0.00300
C886        C  0.27705095  0.73513918  0.38051497    -0.08700
C887        C  0.31178100  0.71632573  0.37317747     0.61600
H888        H  0.26788316  0.74737757  0.32756316     0.12300
H889        H  0.21886389  0.75584712  0.44444457     0.12300
C890        C  0.17334054  0.78354362  0.39830069     0.61900
F891        F  0.31895977  0.71419193  0.33845384    -0.23300
F892        F  0.31049630  0.68209979  0.38577133    -0.20600
F893        F  0.33911727  0.73455011  0.38848975    -0.20300
F894        F  0.14762731  0.76373202  0.38216889    -0.20400
F895        F  0.17250020  0.81796134  0.38616918    -0.20700
F896        F  0.16528859  0.78456833  0.43289887    -0.23400
C897        C  0.21396093  0.74446731  0.14429556    -0.06200
C898        C  0.23394422  0.77216104  0.15834311    -0.00300
C899        C  0.27103650  0.77175987  0.15342161    -0.08800
C900        C  0.28620063  0.74598270  0.13176693    -0.06200
C901        C  0.26617737  0.71841797  0.11760973    -0.00300
C902        C  0.22980927  0.71645088  0.12587239    -0.08700
C903        C  0.20690499  0.68506627  0.11682919     0.61600
H904        H  0.18609635  0.74289674  0.15065371     0.12300
H905        H  0.31398110  0.74737637  0.12515294     0.12300
C906        C  0.29490779  0.79645193  0.17310068     0.61900
F907        F  0.18752149  0.67499372  0.14525456    -0.23300
F908        F  0.22665734  0.65606077  0.10678052    -0.20600
F909        F  0.18399465  0.69437712  0.09100625    -0.20300
F910        F  0.29540258  0.78639357  0.20694712    -0.20400
F911        F  0.28257939  0.83087925  0.17056367    -0.20700
F912        F  0.32930237  0.79509455  0.16107137    -0.23400
C913        C  0.09510470  0.87103629  0.17713582    -0.06200
C914        C  0.08424648  0.84531489  0.20106400    -0.00300
C915        C  0.04830069  0.83605405  0.20323282    -0.08800
C916        C  0.02437025  0.85348490  0.18158253    -0.06200
C917        C  0.03528940  0.87980683  0.15822316    -0.00300
C918        C  0.07139503  0.88827941  0.15544416    -0.08700
C919        C  0.08523124  0.91459482  0.12932872     0.61600
H920        H  0.12271720  0.87816158  0.17582300     0.12300
H921        H  0.99651822  0.84743852  0.18363475     0.12300
C922        C  0.03522037  0.80817234  0.22804222     0.61900
F923        F  0.12169899  0.91360829  0.12686978    -0.23300
F924        F  0.07535360  0.94868755  0.13864367    -0.20600
F925        F  0.07184374  0.90663208  0.09735073    -0.20300
F926        F  0.03778323  0.82103047  0.26113420    -0.20400
F927        F  0.05525704  0.77754046  0.22473931    -0.20700
F928        F  0.00032969  0.79935895  0.22210678    -0.23400
C929        C  0.12256574  0.21518733  0.31591733    -0.06200
C930        C  0.15270359  0.20297304  0.29811424    -0.00300
C931        C  0.16208839  0.16679318  0.29994003    -0.08800
C932        C  0.14023520  0.14376409  0.31888753    -0.06200
C933        C  0.10947625  0.15574715  0.33621266    -0.00300
C934        C  0.10086281  0.19226342  0.33518925    -0.08700
C935        C  0.06850256  0.20675298  0.35346696     0.61600
H936        H  0.11614752  0.24318413  0.31468542     0.12300
H937        H  0.14694548  0.11580481  0.32004840     0.12300
C938        C  0.19420178  0.15254106  0.28090036     0.61900
F939        F  0.07224290  0.20257165  0.38834894    -0.23300
F940        F  0.03891812  0.18868283  0.34262749    -0.20600
F941        F  0.06338752  0.24250800  0.34707320    -0.20300
F942        F  0.22416086  0.17004881  0.29173769    -0.20400
F943        F  0.19005504  0.15781812  0.24616006    -0.20700
F944        F  0.19913743  0.11657726  0.28635925    -0.23400
C945        C  0.17024476  0.14073823  0.48702875    -0.06200
C946        C  0.20373806  0.12627038  0.48115999    -0.00300
C947        C  0.20661078  0.09510801  0.45987827    -0.08800
C948        C  0.17634705  0.08218771  0.44329638    -0.06200
C949        C  0.14340193  0.09822226  0.44732504    -0.00300
C950        C  0.13994674  0.12762608  0.47054687    -0.08700
C951        C  0.10530117  0.14715878  0.47676312     0.61600
H952        H  0.16836290  0.16381323  0.50357676     0.12300
H953        H  0.17825861  0.05966309  0.42604476     0.12300
C954        C  0.24110544  0.07563001  0.45284454     0.61900
F955        F  0.10902429  0.17581561  0.49878840    -0.23300
F956        F  0.08097504  0.12472055  0.49140165    -0.20600
F957        F  0.09258040  0.16002029  0.44625548    -0.20300
F958        F  0.25290297  0.06650982  0.00858062    -0.20400
F959        F  0.26361853  0.09705318  0.43444230    -0.20700
F960        F  0.23641912  0.04482653  0.43388698    -0.23400
C961        C  0.01237317  0.00161894  0.04248341    -0.06200
C962        C  0.98566136  0.97591611  0.03931144    -0.00300
C963        C  0.96857053  0.97151838  0.00758828    -0.08800
C964        C  0.98051782  0.98816781  0.47704219    -0.06200
C965        C  0.00032113  0.01973006  0.48071633    -0.00300
C966        C  0.02299424  0.02290340  0.01481291    -0.08700
C967        C  0.05218137  0.04982081  0.01948115     0.61600
H968        H  0.02472737  0.00511801  0.06720019     0.12300
H969        H  0.97190067  0.98062290  0.45166309     0.12300
C970        C  0.93796742  0.94606474  0.00353918     0.61900
F971        F  0.06562426  0.04950875  0.05233480    -0.23300
F972        F  0.03906012  0.08342668  0.01329293    -0.20600
F973        F  0.07955426  0.04238526  0.99700624    -0.20300
F974        F  0.91170275  0.95470649  0.02687392    -0.20400
F975        F  0.94933096  0.91166350  0.00908912    -0.20700
F976        F  0.94069775  0.92899744  0.46501802    -0.23400
C977        C  0.02104194  0.98309040  0.27533022    -0.06200
C978        C  0.01382001  0.01933913  0.28026322    -0.00300
C979        C  0.98315506  0.03418002  0.26495672    -0.08800
C980        C  0.96081217  0.01221601  0.24569688    -0.06200
C981        C  0.96837169  0.97619611  0.24040949    -0.00300
C982        C  0.99841688  0.96109360  0.25633073    -0.08700
C983        C  0.00736458  0.92179835  0.25430312     0.61600
H984        H  0.04318866  0.97118698  0.28853033     0.12300
H985        H  0.93857031  0.02402134  0.23253921     0.12300
C986        C  0.97281633  0.07307245  0.26784425     0.61900
F987        F  0.01160456  0.90863771  0.28697431    -0.23300
F988        F  0.03862861  0.91727608  0.23638492    -0.20600
F989        F  0.98129128  0.90202311  0.23862756    -0.20300
F990        F  0.99803439  0.09346416  0.28400096    -0.20400
F991        F  0.94131000  0.07594225  0.28571426    -0.20700
F992        F  0.96812740  0.08683564  0.23546842    -0.23400
C993        C  0.88861694  0.12529706  0.34564791    -0.06200
C994        C  0.89837588  0.14859833  0.31904191    -0.00300
C995        C  0.93430553  0.15728205  0.31454283    -0.08800
C996        C  0.95921374  0.14146926  0.33633810    -0.06200
C997        C  0.94943333  0.11702948  0.36187811    -0.00300
C998        C  0.91342747  0.10937402  0.36719787    -0.08700
C999        C  0.90098689  0.08507138  0.39571026     0.61600
H1000       H  0.86105623  0.11861242  0.34899665     0.12300
H1001       H  0.98695843  0.14683953  0.33243147     0.12300
C1002       C  0.94639054  0.18276069  0.28696733     0.61900
F1003       F  0.86470147  0.08631638  0.39992529    -0.23300
F1004       F  0.91610257  0.09529914  0.42634415    -0.20600
F1005       F  0.91032423  0.05034326  0.38828521    -0.20300
F1006       F  0.92737919  0.21413087  0.28935483    -0.20400
F1007       F  0.94135475  0.16754853  0.25508817    -0.20700
F1008       F  0.98180864  0.19094610  0.28996671    -0.23400
C1009       C  0.09856179  0.89462219  0.33026843    -0.06200
C1010       C  0.12863295  0.90323999  0.31062252    -0.00300
C1011       C  0.14132818  0.93832756  0.31102828    -0.08800
C1012       C  0.12369032  0.96365093  0.33126944    -0.06200
C1013       C  0.09329235  0.95542209  0.35053524    -0.00300
C1014       C  0.08022919  0.92032207  0.34994129    -0.08700
C1015       C  0.04775214  0.90987539  0.37035673     0.61600
H1016       H  0.08912315  0.86751124  0.32955925     0.12300
H1017       H  0.13310730  0.99073405  0.33119160     0.12300
C1018       C  0.17352978  0.94894278  0.29051973     0.61900
F1019       F  0.04269146  0.87348290  0.37005609    -0.23300
F1020       F  0.01809843  0.92566279  0.35664420    -0.20600
F1021       F  0.05135149  0.92071673  0.40402324    -0.20300
F1022       F  0.16591940  0.94665661  0.25603058    -0.20400
F1023       F  0.20135047  0.92656212  0.29822274    -0.20700
F1024       F  0.18392617  0.98340673  0.29760786    -0.23400
C1025       C  0.33392066  0.81152945  0.05862727    -0.06200
C1026       C  0.35390639  0.79452346  0.03312270    -0.00300
C1027       C  0.39003136  0.80376852  0.02890527    -0.08800
C1028       C  0.40589826  0.82617695  0.05331172    -0.06200
C1029       C  0.38619458  0.84178006  0.07988754    -0.00300
C1030       C  0.34914549  0.83656597  0.08080185    -0.08700
C1031       C  0.32546895  0.85914983  0.10340270     0.61600
H1032       H  0.30617672  0.80516613  0.06100426     0.12300
H1033       H  0.43358471  0.83288113  0.05090020     0.12300
C1034       C  0.40587479  0.78932672  0.49641192     0.61900
F1035       F  0.29077136  0.84783670  0.10276372    -0.23300
F1036       F  0.32624848  0.89385986  0.09219606    -0.20600
F1037       F  0.33722489  0.85782141  0.13659963    -0.20300
F1038       F  0.38450422  0.79325517  0.46809772    -0.20400
F1039       F  0.41678071  0.75443293  0.49861506    -0.20700
F1040       F  0.43553372  0.81007375  0.49143346    -0.23400
C1041       C  0.47256352  0.01001508  0.23849691    -0.06200
C1042       C  0.48448921  0.97499290  0.23207231    -0.00300
C1043       C  0.50818988  0.95924159  0.25537724    -0.08800
C1044       C  0.52015628  0.97974846  0.28327834    -0.06200
C1045       C  0.50861671  0.01499369  0.28944480    -0.00300
C1046       C  0.48371298  0.03011883  0.26697279    -0.08700
C1047       C  0.46776764  0.06656088  0.27362865     0.61600
H1048       H  0.45401237  0.02169737  0.22079466     0.12300
H1049       H  0.53870408  0.96804343  0.30096866     0.12300
C1050       C  0.52127046  0.92131630  0.25077419     0.61900
F1051       F  0.44229365  0.07512058  0.24978167    -0.23300
F1052       F  0.49377895  0.09213429  0.27206250    -0.20600
F1053       F  0.45200917  0.06730244  0.30565352    -0.20300
F1054       F  0.53827456  0.91769132  0.21952648    -0.20400
F1055       F  0.49303616  0.89819804  0.25223259    -0.20700
F1056       F  0.54476590  0.91162006  0.27607817    -0.23400
C1057       C  0.49217152  0.01181155  0.03776443    -0.06200
C1058       C  0.47562588  0.97903303  0.03136519    -0.00300
C1059       C  0.48626200  0.95868456  0.00275836    -0.08800
C1060       C  0.51433186  0.97356257  0.48699050    -0.06200
C1061       C  0.52157766  0.01008495  0.48968775    -0.00300
C1062       C  0.51811231  0.02562733  0.01595145    -0.08700
C1063       C  0.53449379  0.06088036  0.02578207     0.61600
H1064       H  0.48602904  0.02614589  0.06121797     0.12300
H1065       H  0.52905362  0.95792086  0.46837967     0.12300
C1066       C  0.47038461  0.92243549  0.99612316     0.61900
F1067       F  0.54846696  0.05832087  0.05830829    -0.23300
F1068       F  0.47941746  0.09013728  0.50870401    -0.20600
F1069       F  0.56131587  0.07095579  0.00385774    -0.20300
F1070       F  0.44569647  0.91188833  0.49627226    -0.20400
F1071       F  0.47757981  0.90004088  0.02314677    -0.20700
F1072       F  0.50113542  0.90228583  0.47800071    -0.23400
C1073       C  0.40394475  0.04545141  0.06494974    -0.06200
C1074       C  0.39534501  0.04273963  0.09977120    -0.00300
C1075       C  0.36749031  0.06373922  0.11314062    -0.08800
C1076       C  0.35065992  0.08829175  0.09139200    -0.06200
C1077       C  0.35940900  0.09099530  0.05636405    -0.00300
C1078       C  0.38596905  0.06828926  0.04271626    -0.08700
C1079       C  0.39650559  0.06860597  0.00523070     0.61600
H1080       H  0.42421502  0.02850521  0.05481771     0.12300
H1081       H  0.33005253  0.10534292  0.10153462     0.12300
C1082       C  0.35548084  0.06004512  0.14999756     0.61900
F1083       F  0.42232276  0.04363673  0.99751742    -0.23300
F1084       F  0.40976422  0.10149787  0.99720442    -0.20600
F1085       F  0.36757979  0.06112878  0.98511322    -0.20300
F1086       F  0.38433319  0.06010282  0.17151126    -0.20400
F1087       F  0.33737048  0.02849424  0.15378784    -0.20700
F1088       F  0.33335433  0.08763735  0.15986486    -0.23400
C1089       C  0.31028322  0.91862253  0.19354588    -0.06200
C1090       C  0.34324775  0.90270820  0.19779969    -0.00300
C1091       C  0.34660251  0.87482589  0.22236510    -0.08800
C1092       C  0.31604002  0.86194566  0.23874480    -0.06200
C1093       C  0.28252581  0.87606229  0.23255804    -0.00300
C1094       C  0.28001925  0.90685160  0.21123531    -0.08700
C1095       C  0.24617871  0.92790659  0.20664735     0.61600
H1096       H  0.30840737  0.94041337  0.17568873     0.12300
H1097       H  0.31786573  0.83944243  0.25574466     0.12300
C1098       C  0.38160418  0.85694916  0.23054337     0.61900
F1099       F  0.25140295  0.95859383  0.18794522    -0.23300
F1100       F  0.23350602  0.93811455  0.23833147    -0.20600
F1101       F  0.22142380  0.90785316  0.18957241    -0.20300
F1102       F  0.40482203  0.88155335  0.24392300    -0.20400
F1103       F  0.39564391  0.84164175  0.20126365    -0.20700
F1104       F  0.37793800  0.83030603  0.25456182    -0.23400
C1105       C  0.57162693  0.82986630  0.08911715    -0.06200
C1106       C  0.58361566  0.84862938  0.06039115    -0.00300
C1107       C  0.57249105  0.88423142  0.05580295    -0.08800
C1108       C  0.54957514  0.89976828  0.07992639    -0.06200
C1109       C  0.53708874  0.88100579  0.10829588    -0.00300
C1110       C  0.54812499  0.84533181  0.11312435    -0.08700
C1111       C  0.53653982  0.82426384  0.14420724     0.61600
H1112       H  0.58159337  0.80321289  0.09300945     0.12300
H1113       H  0.54114558  0.92695160  0.07665008     0.12300
C1114       C  0.58612375  0.90654579  0.02656126     0.61900
F1115       F  0.55544703  0.79291773  0.14724002    -0.23300
F1116       F  0.50121582  0.81572870  0.14165065    -0.20600
F1117       F  0.54182309  0.84413451  0.17361101    -0.20300
F1118       F  0.58037670  0.88905043  0.99598651    -0.20400
F1119       F  0.62166880  0.91254491  0.03094187    -0.20700
F1120       F  0.56951696  0.93926669  0.02500124    -0.23400
O1121       O  0.38860440  0.98462812  0.63190905    -0.82200
C1122       C  0.50895852  0.90086039  0.62329099     0.97100
O1123       O  0.50934935  0.93316702  0.63254597    -0.71300
O1124       O  0.47481972  0.95530466  0.58110512    -0.74900
Al1125     Al  0.47032661  0.96622295  0.62667875     1.49000
C1126       C  0.45171686  0.96338878  0.55992119     0.92400
O1127       O  0.39970094  0.89829866  0.58536533    -0.81100
O1128       O  0.40592640  0.90718614  0.68623518    -0.74700
Al1129     Al  0.39644233  0.94094359  0.60966550     1.90100
O1130       O  0.41442791  0.86423881  0.62841205    -0.73800
O1131       O  0.47297753  0.92346230  0.69122263    -0.73600
O1132       O  0.48194224  0.88272010  0.62952604    -0.79300
O1133       O  0.46815407  0.97828879  0.67262505    -0.77500
O1134       O  0.43644665  0.93458216  0.63129848    -1.13600
O1135       O  0.43921400  0.00709323  0.61742112    -0.72800
C1136       C  0.40614658  0.01070290  0.62165333     0.97900
C1137       C  0.40055371  0.86825658  0.59891040     0.94300
Al1138     Al  0.44366334  0.89703093  0.65698008     1.55600
O1139       O  0.41897656  0.96329212  0.56833600    -0.77400
C1140       C  0.47528963  0.95710356  0.69639701     0.98500
C1141       C  0.37459963  0.90865900  0.67641871     0.93300
O1142       O  0.36759593  0.91938646  0.64619249    -0.82800
O1143       O  0.10383412  0.00747138  0.88071957    -0.82200
C1144       C  0.98511015  0.09349012  0.88158859     0.97100
O1145       O  0.98375388  0.06094243  0.88943044    -0.71300
O1146       O  0.01572244  0.03923347  0.83526401    -0.74900
Al1147     Al  0.02166353  0.02735722  0.88069094     1.49000
C1148       C  0.03818468  0.03090425  0.81305689     0.92400
O1149       O  0.09122265  0.09635246  0.83975331    -0.81100
O1150       O  0.08950849  0.08338500  0.93995100    -0.74700
Al1151     Al  0.09549991  0.05251512  0.86148547     1.90100
O1152       O  0.07914936  0.12803994  0.88550870    -0.73800
O1153       O  0.02234772  0.06828035  0.94716401    -0.73600
O1154       O  0.01222135  0.11108958  0.88828015    -0.79300
O1155       O  0.02483407  0.01386553  0.92612684    -0.77500
O1156       O  0.05638077  0.05828979  0.88536390    -1.13600
O1157       O  0.05171929  0.98652928  0.86881923    -0.72800
C1158       C  0.08485046  0.98208957  0.87078862     0.97900
C1159       C  0.09247660  0.12538490  0.85565622     0.94300
Al1160     Al  0.05076958  0.09503338  0.91319704     1.55600
O1161       O  0.07115823  0.03143828  0.82033636    -0.77400
C1162       C  0.01903659  0.03468450  0.95081772     0.98500
C1163       C  0.12046075  0.08348884  0.92852992     0.93300
O1164       O  0.12661278  0.07318682  0.89770845    -0.82800
O1165       O  0.22571158  0.85858185  0.74807283    -0.82200
C1166       C  0.15874000  0.72830372  0.75399869     0.97100
O1167       O  0.19073588  0.73041744  0.76417354    -0.71300
O1168       O  0.21590453  0.76098493  0.71320777    -0.74900
Al1169     Al  0.22058802  0.77303392  0.75776271     1.49000
C1170       C  0.21927967  0.78141341  0.68871856     0.92400
O1171       O  0.14503460  0.82218180  0.70722558    -0.81100
O1172       O  0.15397751  0.83801281  0.80780603    -0.74700
Al1173     Al  0.18508336  0.83876960  0.72922794     1.90100
O1174       O  0.11251514  0.81809260  0.75306954    -0.73800
O1175       O  0.17456592  0.77116334  0.82080920    -0.73600
O1176       O  0.13762259  0.75324093  0.76058691    -0.79300
O1177       O  0.22872358  0.78154911  0.80380529    -0.77500
O1178       O  0.18474256  0.80274766  0.75730092    -1.13600
O1179       O  0.25688495  0.80981406  0.74753265    -0.72800
C1180       C  0.25499722  0.84358751  0.74439635     0.97900
C1181       C  0.11548041  0.82528906  0.72135000     0.94300
Al1182     Al  0.14741951  0.79525985  0.78394269     1.55600
O1183       O  0.21205908  0.81434995  0.69186554    -0.77400
C1184       C  0.20772852  0.77169545  0.82669176     0.98500
C1185       C  0.15093487  0.86757153  0.79299351     0.93300
O1186       O  0.15856688  0.87040896  0.76116217    -0.82800
O1187       O  0.86978619  0.91659311  0.62918452    -0.82200
C1188       C  0.01042463  0.89519936  0.63732661     0.97100
O1189       O  0.98332780  0.87799359  0.62949188    -0.71300
O1190       O  0.91654954  0.86199072  0.63535378    -0.74900
Al1191     Al  0.94354858  0.89606748  0.60729077     1.49000
C1192       C  0.90793359  0.86332799  0.66693020     0.92400
O1193       O  0.92841582  0.95686585  0.70329370    -0.81100
O1194       O  0.94488666  0.00244316  0.65459873    -0.74700
Al1195     Al  0.90268915  0.93609167  0.66323169     1.90100
O1196       O  0.98307703  0.94913292  0.68628728    -0.73800
O1197       O  0.96975752  0.97678326  0.59634288    -0.73600
O1198       O  0.01210759  0.92805356  0.63049985    -0.79300
O1199       O  0.97050740  0.92372312  0.57285622    -0.77500
O1200       O  0.94023889  0.93132274  0.63712621    -1.13600
O1201       O  0.90342677  0.91075736  0.58371891    -0.72800
C1202       C  0.87332961  0.91006361  0.59729716     0.97900
C1203       C  0.96154344  0.95717875  0.70941569     0.94300
Al1204     Al  0.97498943  0.96196249  0.64120297     1.55600
O1205       O  0.90969000  0.89204627  0.68334920    -0.77400
C1206       C  0.97364349  0.95740476  0.57030058     0.98500
C1207       C  0.91157059  0.00625301  0.65321221     0.93300
O1208       O  0.89267548  0.98045431  0.64466845    -0.82800
O1209       O  0.83583561  0.11778306  0.75698836    -0.82200
C1210       C  0.83814437  0.25872632  0.76838027     0.97100
O1211       O  0.85907213  0.23407103  0.76043672    -0.71300
O1212       O  0.88270930  0.16905048  0.76651956    -0.74900
Al1213     Al  0.84864078  0.19304808  0.73611145     1.49000
C1214       C  0.87934377  0.16103511  0.79798617     0.92400
O1215       O  0.78304320  0.17137603  0.82699934    -0.81100
O1216       O  0.73899423  0.17994119  0.77179354    -0.74700
Al1217     Al  0.80965907  0.14821055  0.78908962     1.90100
O1218       O  0.78144482  0.22560173  0.80756979    -0.73800
O1219       O  0.76778370  0.20889048  0.71680121    -0.73600
O1220       O  0.80641999  0.25754816  0.75758502    -0.79300
O1221       O  0.82220629  0.21823810  0.69996649    -0.77500
O1222       O  0.81115556  0.18534525  0.76239164    -1.13600
O1223       O  0.84131189  0.15135903  0.71120676    -0.72800
C1224       C  0.84353895  0.12148050  0.72541157     0.97900
C1225       C  0.77810153  0.20449599  0.83160808     0.94300
Al1226     Al  0.77600084  0.21574873  0.76285144     1.55600
O1227       O  0.84961485  0.16311776  0.81198447    -0.77400
C1228       C  0.78916262  0.21764074  0.69381157     0.98500
C1229       C  0.74032687  0.14609248  0.77238321     0.93300
O1230       O  0.76933695  0.13060710  0.76819814    -0.82800
O1231       O  0.17901927  0.37533221  0.75109450    -0.82200
C1232       C  0.17342142  0.23067837  0.78275136     0.97100
O1233       O  0.15557275  0.24486166  0.75942656    -0.71300
O1234       O  0.11824120  0.29914016  0.78209552    -0.74900
Al1235     Al  0.15268290  0.29244411  0.74466347     1.49000
C1236       C  0.11508037  0.32647068  0.80093641     0.92400
O1237       O  0.19112302  0.32301903  0.83509337    -0.81100
O1238       O  0.25941863  0.32011348  0.75740265    -0.74700
Al1239     Al  0.18614075  0.34843027  0.79215762     1.90100
O1240       O  0.23807789  0.29379714  0.81763998    -0.73800
O1241       O  0.22923733  0.26419675  0.72781990    -0.73600
O1242       O  0.20361120  0.24217879  0.79038677    -0.79300
O1243       O  0.18121587  0.28318526  0.70376946    -0.77500
O1244       O  0.18929407  0.30776231  0.76903115    -1.13600
O1245       O  0.14288509  0.33761963  0.72624807    -0.72800
C1246       C  0.15592291  0.36838871  0.72850347     0.97900
C1247       C  0.21651448  0.30184153  0.84073103     0.94300
Al1248     Al  0.22893291  0.28194846  0.77249991     1.55600
O1249       O  0.13838204  0.34953220  0.80037271    -0.77400
C1250       C  0.21151961  0.26896294  0.70128741     0.98500
C1251       C  0.26096394  0.34863255  0.77483904     0.93300
O1252       O  0.23406947  0.35948691  0.79062590    -0.82800
O1253       O  0.12655280  0.56851103  0.62529191    -0.82200
C1254       C  0.98472257  0.58714847  0.64022628     0.97100
O1255       O  0.01186118  0.60505456  0.63361709    -0.71300
O1256       O  0.07972938  0.62296905  0.63767620    -0.74900
Al1257     Al  0.05145845  0.58921541  0.60869461     1.49000
C1258       C  0.09109088  0.62010690  0.66837425     0.92400
O1259       O  0.07066656  0.52579436  0.70059465    -0.81100
O1260       O  0.05357204  0.48090219  0.65123643    -0.74700
Al1261     Al  0.09516279  0.54751666  0.66021640     1.90100
O1262       O  0.01548975  0.53285085  0.68527070    -0.73800
O1263       O  0.02678341  0.50783414  0.59415362    -0.73600
O1264       O  0.98421122  0.55458318  0.63168852    -0.79300
O1265       O  0.02342191  0.56188678  0.57399986    -0.77500
O1266       O  0.05663824  0.55273419  0.63610617    -1.13600
O1267       O  0.09080949  0.57676494  0.58218731    -0.72800
C1268       C  0.12158264  0.57637420  0.59396798     0.97900
C1269       C  0.03764552  0.52568429  0.70770863     0.94300
Al1270     Al  0.02255339  0.52123114  0.63989513     1.55600
O1271       O  0.08896931  0.59061276  0.68296293    -0.77400
C1272       C  0.02045138  0.52819921  0.56952163     0.98500
C1273       C  0.08689608  0.47759312  0.64878623     0.93300
O1274       O  0.10481486  0.50369882  0.63929285    -0.82800
O1275       O  0.88884250  0.48098191  0.87854063    -0.82200
C1276       C  0.00812046  0.39467551  0.88284473     0.97100
O1277       O  0.01042648  0.42816265  0.88745288    -0.71300
O1278       O  0.97879094  0.45012344  0.83431748    -0.74900
Al1279     Al  0.97240635  0.46300723  0.87955444     1.49000
C1280       C  0.95710178  0.45878482  0.81203646     0.92400
O1281       O  0.90745621  0.39273750  0.83898598    -0.81100
O1282       O  0.90234725  0.41288222  0.93913460    -0.74700
Al1283     Al  0.89961095  0.43668970  0.85967028     1.90100
O1284       O  0.91363853  0.36308325  0.88679597    -0.73800
O1285       O  0.96998792  0.42533993  0.94794266    -0.73600
O1286       O  0.98057543  0.37864789  0.89128644    -0.79300
O1287       O  0.96978465  0.47828870  0.92492082    -0.77500
O1288       O  0.93779445  0.43252424  0.88480586    -1.13600
O1289       O  0.94069530  0.50379151  0.86838888    -0.72800
C1290       C  0.90706658  0.50730582  0.87039708     0.97900
C1291       C  0.90422086  0.36437755  0.85546198     0.94300
Al1292     Al  0.94170046  0.39751186  0.91434215     1.55600
O1293       O  0.92409201  0.45836359  0.81898720    -0.77400
C1294       C  0.97447165  0.45893084  0.95053688     0.98500
C1295       C  0.87208532  0.41028597  0.92657614     0.93300
O1296       O  0.86730395  0.41618571  0.89474915    -0.82800
O1297       O  0.32796066  0.61558066  0.49918356    -0.82200
C1298       C  0.33370462  0.75914505  0.51614315     0.97100
O1299       O  0.35791025  0.73776355  0.00872917    -0.71300
O1300       O  0.37619312  0.66739120  0.51283332    -0.74900
Al1301     Al  0.34610854  0.69673867  0.98517026     1.49000
C1302       C  0.37312746  0.65591359  0.54340649     0.92400
O1303       O  0.27666461  0.66427599  0.57349201    -0.81100
O1304       O  0.23265348  0.67972618  0.52167165    -0.74700
Al1305     Al  0.30242535  0.64394929  0.53347810     1.90100
O1306       O  0.27785165  0.72067985  0.56009855    -0.73800
O1307       O  0.26342340  0.71500798  0.97117670    -0.73600
O1308       O  0.30067539  0.75735652  0.51028693    -0.79300
O1309       O  0.31694419  0.72214588  0.95062494    -0.77500
O1310       O  0.30474063  0.68382909  0.51026664    -1.13600
O1311       O  0.33799837  0.65561931  0.95966905    -0.72800
C1312       C  0.34152458  0.62540491  0.97269637     0.97900
C1313       C  0.27270229  0.69686819  0.58153783     0.94300
Al1314     Al  0.27025574  0.71517613  0.51432537     1.55600
O1315       O  0.34328167  0.65437577  0.55736707    -0.77400
C1316       C  0.28340517  0.72333108  0.94687635     0.98500
C1317       C  0.23271855  0.64601018  0.51871092     0.93300
O1318       O  0.26094580  0.63010588  0.51135960    -0.82800
O1319       O  0.73567970  0.35486351  0.00825612    -0.82200
C1320       C  0.65474351  0.23335293  0.50377155     0.97100
O1321       O  0.68730989  0.23193871  0.51144863    -0.71300
O1322       O  0.71576559  0.26504652  0.96113913    -0.74900
Al1323     Al  0.72166971  0.27177398  0.00637570     1.49000
C1324       C  0.72079003  0.28753592  0.93840312     0.92400
O1325       O  0.65401620  0.33732604  0.95879034    -0.81100
O1326       O  0.66419555  0.33838357  0.56636678    -0.74700
Al1327     Al  0.69450790  0.34397853  0.98435734     1.90100
O1328       O  0.61973229  0.32808433  0.51113650    -0.73800
O1329       O  0.68022247  0.26993747  0.57152076    -0.73600
O1330       O  0.63734524  0.26030898  0.51249755    -0.79300
O1331       O  0.73409527  0.27265029  0.55010150    -0.77500
O1332       O  0.68947325  0.30540049  0.51090268    -1.13600
O1333       O  0.76160488  0.30427563  0.99879614    -0.72800
C1334       C  0.76334095  0.33784518  0.00170775     0.97900
C1335       C  0.62352431  0.33771350  0.97109927     0.94300
Al1336     Al  0.65301608  0.29920916  0.53853809     1.55600
O1337       O  0.71920294  0.32067693  0.94525247    -0.77400
C1338       C  0.71368711  0.26636520  0.57474542     0.98500
C1339       C  0.66479403  0.36952614  0.55486263     0.93300
O1340       O  0.67478074  0.37527929  0.52432038    -0.82800
O1341       O  0.36944917  0.42464448  0.87534420    -0.82200
C1342       C  0.51004605  0.39911554  0.89026335     0.97100
O1343       O  0.48238532  0.38263484  0.88309365    -0.71300
O1344       O  0.41432370  0.36888856  0.88801008    -0.74900
Al1345     Al  0.44390208  0.40038557  0.85867851     1.49000
C1346       C  0.40270968  0.37240184  0.91868936     0.92400
O1347       O  0.42654385  0.46755148  0.94997680    -0.81100
O1348       O  0.44632050  0.50978732  0.90047312    -0.74700
Al1349     Al  0.40151664  0.44521283  0.90980724     1.90100
O1350       O  0.48138447  0.45634202  0.93519274    -0.73800
O1351       O  0.47270497  0.47993019  0.84439567    -0.73600
O1352       O  0.51256571  0.43172818  0.88219540    -0.79300
O1353       O  0.47299147  0.42552776  0.82377986    -0.77500
O1354       O  0.44027654  0.43738380  0.88610853    -1.13600
O1355       O  0.40570702  0.41457209  0.83241107    -0.72800
C1356       C  0.37490304  0.41610668  0.84413268     0.97900
C1357       C  0.45953272  0.46677870  0.95705333     0.94300
Al1358     Al  0.47576408  0.46732399  0.88983928     1.55600
O1359       O  0.40475672  0.40226735  0.93317835    -0.77400
C1360       C  0.47665019  0.45904126  0.81952196     0.98500
C1361       C  0.41316712  0.51411585  0.89721033     0.93300
O1362       O  0.39475068  0.48846093  0.88751113    -0.82800
O1363       O  0.26806704  0.13273802  0.99873169    -0.82200
C1364       C  0.33479627  0.25930617  0.50369857     0.97100
O1365       O  0.30230340  0.25829433  0.51273590    -0.71300
O1366       O  0.27715416  0.22955797  0.96417430    -0.74900
Al1367     Al  0.27526327  0.21745561  0.00856957     1.49000
C1368       C  0.27248092  0.21005792  0.93891588     0.92400
O1369       O  0.34623936  0.16562366  0.95059761    -0.81100
O1370       O  0.33327028  0.15300862  0.56039693    -0.74700
Al1371     Al  0.30714621  0.15115121  0.97614727     1.90100
O1372       O  0.37831892  0.16730649  0.50649538    -0.73800
O1373       O  0.31546970  0.22052289  0.56964308    -0.73600
O1374       O  0.35494678  0.23359777  0.50988737    -0.79300
O1375       O  0.26135415  0.21060570  0.55281029    -0.77500
O1376       O  0.30638983  0.18570408  0.50727693    -1.13600
O1377       O  0.23757547  0.18171925  0.00055349    -0.72800
C1378       C  0.23879733  0.14786538  0.99774251     0.97900
C1379       C  0.37666696  0.16317824  0.96246987     0.94300
Al1380     Al  0.34278237  0.19338854  0.53469772     1.55600
O1381       O  0.27824677  0.17668661  0.94094373    -0.77400
C1382       C  0.28230751  0.22068870  0.57564923     0.98500
C1383       C  0.33495447  0.12239268  0.54741325     0.93300
O1384       O  0.32803462  0.11751809  0.51568568    -0.82800
O1385       O  0.63255155  0.06426776  0.87424725    -0.82200
C1386       C  0.49222617  0.09376303  0.88934644     0.97100
O1387       O  0.52062830  0.10879757  0.88184565    -0.71300
O1388       O  0.58879029  0.12008474  0.88746036    -0.74900
Al1389     Al  0.55891683  0.08931141  0.85772879     1.49000
C1390       C  0.60017334  0.11582125  0.91803071     0.92400
O1391       O  0.57542122  0.02159206  0.94796569    -0.81100
O1392       O  0.55352822  0.98053492  0.89898706    -0.74700
Al1393     Al  0.59991313  0.04375605  0.90800064     1.90100
O1394       O  0.52068018  0.03526793  0.93579418    -0.73800
O1395       O  0.52607026  0.01067335  0.84412393    -0.73600
O1396       O  0.48875641  0.06066819  0.88349128    -0.79300
O1397       O  0.52947579  0.06449342  0.82294342    -0.77500
O1398       O  0.56116124  0.05263259  0.88513676    -1.13600
O1399       O  0.59743645  0.07392308  0.83126467    -0.72800
C1400       C  0.62807266  0.07305216  0.84322216     0.97900
C1401       C  0.54282103  0.02329311  0.95629621     0.94300
Al1402     Al  0.52476724  0.02388991  0.88981252     1.55600
O1403       O  0.59730443  0.08619737  0.93223875    -0.77400
C1404       C  0.52353175  0.03121669  0.81909873     0.98500
C1405       C  0.58659803  0.97557946  0.89471065     0.93300
O1406       O  0.60524809  0.00080135  0.88441544    -0.82800
O1407       O  0.66612177  0.87364284  0.50663599    -0.82200
C1408       C  0.65644624  0.73092867  0.51234568     0.97100
O1409       O  0.63212812  0.75683405  0.00822609    -0.71300
O1410       O  0.61756239  0.82266192  0.51301983    -0.74900
Al1411     Al  0.64822193  0.79561124  0.98351985     1.49000
C1412       C  0.61905063  0.83114296  0.54459546     0.92400
O1413       O  0.71441341  0.81822454  0.57731254    -0.81100
O1414       O  0.75929068  0.80536765  0.52595740    -0.74700
Al1415     Al  0.69001123  0.84203258  0.53884779     1.90100
O1416       O  0.71036438  0.76339116  0.55943611    -0.73800
O1417       O  0.73005925  0.77076865  0.97286615    -0.73600
O1418       O  0.68958398  0.73125942  0.50670385    -0.79300
O1419       O  0.67686661  0.76711974  0.95077976    -0.77500
O1420       O  0.68796821  0.80425275  0.51199106    -1.13600
O1421       O  0.66046732  0.83447487  0.95690980    -0.72800
C1422       C  0.65888183  0.86543110  0.96882189     0.97900
C1423       C  0.71802696  0.78505489  0.58222590     0.94300
Al1424     Al  0.72106523  0.77158101  0.51474733     1.55600
O1425       O  0.64776590  0.83031327  0.56045106    -0.77400
C1426       C  0.71042181  0.76457941  0.94771552     0.98500
C1427       C  0.76018946  0.83922870  0.52563214     0.93300
O1428       O  0.73261192  0.85649926  0.51908735    -0.82800
O1429       O  0.76168774  0.63538939  0.75387400    -0.82200
C1430       C  0.84082610  0.76029554  0.75293770     0.97100
O1431       O  0.80820537  0.76032114  0.76051666    -0.71300
O1432       O  0.78689513  0.72587871  0.70912788    -0.74900
Al1433     Al  0.77667349  0.71991266  0.75428138     1.49000
C1434       C  0.77859363  0.70339304  0.68723434     0.92400
O1435       O  0.84651813  0.65557207  0.70867498    -0.81100
O1436       O  0.83848048  0.65342658  0.80954092    -0.74700
Al1437     Al  0.80506602  0.64724222  0.73269669     1.90100
O1438       O  0.87963735  0.66886754  0.75269528    -0.73800
O1439       O  0.81939823  0.72032975  0.81931608    -0.73600
O1440       O  0.85936168  0.73377464  0.75921871    -0.79300
O1441       O  0.76500409  0.71661090  0.80019520    -0.77500
O1442       O  0.80924425  0.68660115  0.75728436    -1.13600
O1443       O  0.73744811  0.68713567  0.74463883    -0.72800
C1444       C  0.73485417  0.65349048  0.74597051     0.97900
C1445       C  0.87629418  0.65707550  0.72228403     0.94300
Al1446     Al  0.84637306  0.69390955  0.78339524     1.55600
O1447       O  0.78075624  0.67027976  0.69355863    -0.77400
C1448       C  0.78602776  0.72257225  0.82427454     0.98500
C1449       C  0.84100324  0.62289105  0.79673699     0.93300
O1450       O  0.82988591  0.61683519  0.76643038    -0.82800
O1451       O  0.60532694  0.51292820  0.62564322    -0.82200
C1452       C  0.48230791  0.59218407  0.62781309     0.97100
O1453       O  0.48275446  0.55964678  0.63613877    -0.71300
O1454       O  0.51423188  0.53840385  0.58237189    -0.74900
Al1455     Al  0.52221193  0.52743658  0.62733444     1.49000
C1456       C  0.53602724  0.53079758  0.55953298     0.92400
O1457       O  0.58514342  0.59892049  0.58294025    -0.81100
O1458       O  0.58974173  0.58639128  0.68383950    -0.74700
Al1459     Al  0.59344201  0.55601340  0.60523814     1.90100
O1460       O  0.57530225  0.63093350  0.62914752    -0.73800
O1461       O  0.52284744  0.56888801  0.69345371    -0.73600
O1462       O  0.50869182  0.61104440  0.63458535    -0.79300
O1463       O  0.52729286  0.51475661  0.67259669    -0.77500
O1464       O  0.55525499  0.56010841  0.63058669    -1.13600
O1465       O  0.55474524  0.48767323  0.61587858    -0.72800
C1466       C  0.58817664  0.48552074  0.61839513     0.97900
C1467       C  0.58560919  0.62844811  0.59803376     0.94300
Al1468     Al  0.54920167  0.59673365  0.65841883     1.55600
O1469       O  0.56915530  0.53248482  0.56550353    -0.77400
C1470       C  0.52100324  0.53516698  0.69741153     0.98500
C1471       C  0.62022432  0.58652650  0.67090077     0.93300
O1472       O  0.62466061  0.57825657  0.63941272    -0.82800
C1473       C  0.71014847  0.60326205  0.71226292    -0.06200
C1474       C  0.70351614  0.63481300  0.73106383    -0.00300
C1475       C  0.66876516  0.64898990  0.73123592    -0.08800
C1476       C  0.64234125  0.63122530  0.71246927    -0.06200
C1477       C  0.64956399  0.60085051  0.69228561    -0.00300
C1478       C  0.68401398  0.58644346  0.69237348    -0.08700
C1479       C  0.69324158  0.55360001  0.67144789     0.61600
H1480       H  0.73674812  0.59275001  0.71161952     0.12300
H1481       H  0.61587458  0.64211305  0.71205563     0.12300
C1482       C  0.65929950  0.68266120  0.75090214     0.61900
F1483       F  0.72661959  0.54092485  0.67894020    -0.23300
F1484       F  0.69240584  0.56159089  0.63698236    -0.20600
F1485       F  0.66928640  0.52689229  0.67825492    -0.20300
F1486       F  0.67453824  0.71172774  0.73539263    -0.20400
F1487       F  0.67111714  0.68019401  0.78421489    -0.20700
F1488       F  0.62320287  0.68842352  0.75197298    -0.23400
C1489       C  0.59032669  0.66251009  0.54427176    -0.06200
C1490       C  0.60102859  0.65855875  0.57847992    -0.00300
C1491       C  0.63098675  0.67762955  0.58995116    -0.08800
C1492       C  0.64964836  0.69888188  0.56656395    -0.06200
C1493       C  0.63916944  0.70253477  0.53244938    -0.00300
C1494       C  0.60848581  0.68471115  0.52119111    -0.08700
C1495       C  0.59560335  0.68835790  0.48469628     0.61600
H1496       H  0.56774349  0.64746083  0.53560045     0.12300
H1497       H  0.67816957  0.69958238  0.07006397     0.12300
C1498       C  0.64495217  0.67392724  0.62593157     0.61900
F1499       F  0.56816327  0.66531304  0.47771711    -0.23300
F1500       F  0.62293942  0.68086906  0.46214625    -0.20600
F1501       F  0.58364391  0.72255323  0.47921570    -0.20300
F1502       F  0.65739488  0.63988204  0.63010522    -0.20400
F1503       F  0.61860006  0.68126899  0.64955657    -0.20700
F1504       F  0.68886367  0.67521887  0.12391930    -0.23400
C1505       C  0.75945456  0.77199734  0.90622256    -0.06200
C1506       C  0.72821145  0.75395822  0.91516708    -0.00300
C1507       C  0.71760748  0.72444521  0.89526993    -0.08800
C1508       C  0.73859744  0.71422608  0.86698068    -0.06200
C1509       C  0.76962816  0.73245879  0.85773797    -0.00300
C1510       C  0.78009355  0.76218521  0.87748018    -0.08700
C1511       C  0.81168233  0.78453749  0.86739130     0.61600
H1512       H  0.76736937  0.79435954  0.92187870     0.12300
H1513       H  0.73059826  0.69187673  0.85134648     0.12300
C1514       C  0.68497800  0.70312670  0.90432587     0.61900
F1515       F  0.81621437  0.81317133  0.88930498    -0.23300
F1516       F  0.80698406  0.79758697  0.83472171    -0.20600
F1517       F  0.84205916  0.76414809  0.86821705    -0.20300
F1518       F  0.65526837  0.72434682  0.90188049    -0.20400
F1519       F  0.68777032  0.69045123  0.93734549    -0.20700
F1520       F  0.68059281  0.67433143  0.88259766    -0.23400
C1521       C  0.76662014  0.74993343  0.60414378    -0.06200
C1522       C  0.73556149  0.76933745  0.61156839    -0.00300
C1523       C  0.71751442  0.76397663  0.64249045    -0.08800
C1524       C  0.73056418  0.73822741  0.66487900    -0.06200
C1525       C  0.76147998  0.71862598  0.65746513    -0.00300
C1526       C  0.78047108  0.72519767  0.62720646    -0.08700
C1527       C  0.81555168  0.70696869  0.62014787     0.61600
H1528       H  0.77966453  0.75402455  0.57977234     0.12300
H1529       H  0.71753576  0.73421645  0.68920262     0.12300
C1530       C  0.68443686  0.78494383  0.65122844     0.61900
F1531       F  0.82974888  0.71686026  0.58892835    -0.23300
F1532       F  0.81088740  0.67056978  0.61987808    -0.20600
F1533       F  0.83944589  0.71581597  0.64540928    -0.20300
F1534       F  0.65767201  0.77566252  0.62905045    -0.20400
F1535       F  0.69116488  0.82086637  0.64816777    -0.20700
F1536       F  0.67310788  0.77867899  0.68437442    -0.23400
C1537       C  0.63709132  0.95344667  0.92765003    -0.06200
C1538       C  0.60566626  0.94513192  0.91007914    -0.00300
C1539       C  0.59391874  0.90966579  0.90927401    -0.08800
C1540       C  0.61325770  0.88410342  0.92760879    -0.06200
C1541       C  0.64330251  0.89318735  0.94699236    -0.00300
C1542       C  0.65617040  0.92813211  0.94606383    -0.08700
C1543       C  0.67967017  0.94730012  0.48167432     0.61600
H1544       H  0.64633335  0.98052137  0.92790448     0.12300
H1545       H  0.60396723  0.85690523  0.92825212     0.12300
C1546       C  0.56175829  0.89882395  0.88887530     0.61900
F1547       F  0.68708320  0.98292579  0.47699490    -0.23300
F1548       F  0.71021474  0.92818841  0.47501356    -0.20600
F1549       F  0.66984556  0.94277062  0.51549312    -0.20300
F1550       F  0.56474684  0.91123798  0.85574605    -0.20400
F1551       F  0.53162909  0.91284109  0.90385610    -0.20700
F1552       F  0.55816435  0.86227365  0.88733870    -0.23400
C1553       C  0.44046530  0.15724331  0.94818142    -0.06200
C1554       C  0.40559122  0.14863473  0.93996830    -0.00300
C1555       C  0.39953013  0.12410719  0.91236996    -0.08800
C1556       C  0.42867095  0.10735744  0.89648008    -0.06200
C1557       C  0.46332864  0.11501904  0.90565149    -0.00300
C1558       C  0.46951860  0.14149293  0.93114731    -0.08700
C1559       C  0.50649898  0.15283525  0.94110342     0.61600
H1560       H  0.44478054  0.17639269  0.96848292     0.12300
H1561       H  0.42468763  0.08766003  0.87659814     0.12300
C1562       C  0.36290582  0.11397995  0.89987450     0.61900
F1563       F  0.50632896  0.17635826  0.96846928    -0.23300
F1564       F  0.52239959  0.16966325  0.91375258    -0.20600
F1565       F  0.52620015  0.12350892  0.95038461    -0.20300
F1566       F  0.34493217  0.14384273  0.88900277    -0.20400
F1567       F  0.34441121  0.09753349  0.92578623    -0.20700
F1568       F  0.36419130  0.09051761  0.87246669    -0.23400
C1569       C  0.52266322  0.48250444  0.73534068    -0.06200
C1570       C  0.51026629  0.51753920  0.73004476    -0.00300
C1571       C  0.48524884  0.53193820  0.75331590    -0.08800
C1572       C  0.47367925  0.51076998  0.78079287    -0.06200
C1573       C  0.48642895  0.47594880  0.78631946    -0.00300
C1574       C  0.51127596  0.46145343  0.76299602    -0.08700
C1575       C  0.52647350  0.42446217  0.76765459     0.61600
H1576       H  0.54167692  0.47150558  0.71735906     0.12300
H1577       H  0.45465616  0.52168962  0.79881894     0.12300
C1578       C  0.47045014  0.56917700  0.74919533     0.61900
F1579       F  0.55141879  0.41615043  0.74281756    -0.23300
F1580       F  0.49976798  0.39964189  0.76556298    -0.20600
F1581       F  0.54256411  0.42211928  0.79923872    -0.20300
F1582       F  0.45472821  0.57238211  0.71753622    -0.20400
F1583       F  0.49738104  0.59365905  0.75208003    -0.20700
F1584       F  0.44530011  0.57725660  0.77390281    -0.23400
C1585       C  0.47355996  0.52002362  0.99061153    -0.06200
C1586       C  0.47563025  0.48286266  0.98772461    -0.00300
C1587       C  0.48700063  0.46090125  0.51271277    -0.08800
C1588       C  0.51352604  0.47771894  0.53179076    -0.06200
C1589       C  0.52002519  0.51427923  0.52921343    -0.00300
C1590       C  0.49913217  0.53479117  0.50683450    -0.08700
C1591       C  0.49653462  0.57982529  0.01091618     0.61600
H1592       H  0.45371860  0.53386965  0.97585962     0.12300
H1593       H  0.52786809  0.46244188  0.55064003     0.12300
C1594       C  0.48071950  0.42173648  0.51906435     0.61900
F1595       F  0.46967454  0.59286562  0.99060760    -0.23300
F1596       F  0.52813455  0.59348151  0.99911140    -0.20600
F1597       F  0.49404292  0.59079936  0.53455579    -0.20300
F1598       F  0.45363020  0.40805926  0.49952106    -0.20400
F1599       F  0.47189176  0.41702994  0.55313059    -0.20700
F1600       F  0.51124330  0.40279724  0.51189333    -0.23400
C1601       C  0.36282817  0.28288747  0.94713664    -0.06200
C1602       C  0.35030580  0.29139565  0.98016586    -0.00300
C1603       C  0.35418613  0.32630349  0.99246143    -0.08800
C1604       C  0.37231339  0.35115211  0.97194725    -0.06200
C1605       C  0.38514264  0.34291262  0.93856767    -0.00300
C1606       C  0.37863993  0.30824866  0.92546078    -0.08700
C1607       C  0.38678230  0.29798046  0.88863421     0.61600
H1608       H  0.35956063  0.25581103  0.93820127     0.12300
H1609       H  0.37599138  0.37767651  0.98202835     0.12300
C1610       C  0.33930412  0.33699241  0.02710749     0.61900
F1611       F  0.37629606  0.26365486  0.88109547    -0.23300
F1612       F  0.42259933  0.30017851  0.88234674    -0.20600
F1613       F  0.36885721  0.32045905  0.86696391    -0.20300
F1614       F  0.35838454  0.30962163  0.55473804    -0.20400
F1615       F  0.30300792  0.33337190  0.02673581    -0.20700
F1616       F  0.34705403  0.37189518  0.03530515    -0.23400
C1617       C  0.56087290  0.33940876  0.95251662    -0.06200
C1618       C  0.59484829  0.35348998  0.94990071    -0.00300
C1619       C  0.60094499  0.38205569  0.92662547    -0.08800
C1620       C  0.57264301  0.39520108  0.90730350    -0.06200
C1621       C  0.53879524  0.38079677  0.90945527    -0.00300
C1622       C  0.53286414  0.35165581  0.93207536    -0.08700
C1623       C  0.49737572  0.33329398  0.93525136     0.61600
H1624       H  0.55652972  0.31819590  0.97054537     0.12300
H1625       H  0.57681027  0.41710773  0.88997000     0.12300
C1626       C  0.63667947  0.39993416  0.92243620     0.61900
F1627       F  0.49293114  0.31574952  0.41032951    -0.23300
F1628       F  0.47177842  0.35752924  0.94484229    -0.20600
F1629       F  0.49758735  0.30668436  0.95953868    -0.20300
F1630       F  0.66038656  0.37677765  0.90700020    -0.20400
F1631       F  0.64908723  0.41061543  0.95400829    -0.20700
F1632       F  0.63486270  0.42986763  0.90211755    -0.23400
C1633       C  0.61629746  0.39131223  0.59219238    -0.06200
C1634       C  0.64868624  0.39840937  0.57570002    -0.00300
C1635       C  0.66268511  0.43299186  0.57714922    -0.08800
C1636       C  0.64260969  0.45986137  0.59308342    -0.06200
C1637       C  0.60879567  0.45357549  0.60725656    -0.00300
C1638       C  0.59586415  0.41837140  0.60782594    -0.08700
C1639       C  0.56096681  0.40919440  0.62478097     0.61600
H1640       H  0.60606603  0.36450931  0.59108784     0.12300
H1641       H  0.65271919  0.48670663  0.59270628     0.12300
C1642       C  0.69821830  0.44191470  0.56130409     0.61900
F1643       F  0.55620096  0.37284366  0.62690608    -0.23300
F1644       F  0.53333060  0.42301868  0.60614381    -0.20600
F1645       F  0.55995605  0.42300751  0.65765230    -0.20300
F1646       F  0.69503513  0.44387549  0.52615664    -0.20400
F1647       F  0.72287085  0.41614933  0.56938234    -0.20700
F1648       F  0.71073682  0.47418376  0.57317296    -0.23400
C1649       C  0.65582347  0.16797637  0.98289195    -0.06200
C1650       C  0.64429373  0.20264506  0.97685337    -0.00300
C1651       C  0.62115894  0.20894131  0.94882804    -0.08800
C1652       C  0.60809190  0.17994843  0.93004309    -0.06200
C1653       C  0.61753858  0.14503059  0.93761497    -0.00300
C1654       C  0.64330830  0.13892025  0.96363201    -0.08700
C1655       C  0.65877690  0.10237612  0.97084184     0.61600
H1656       H  0.67438656  0.16371697  0.00347381     0.12300
H1657       H  0.58956065  0.18440411  0.90951039     0.12300
C1658       C  0.58380410  0.24310597  0.46614348     0.61900
F1659       F  0.68797257  0.10424036  0.99190704    -0.23300
F1660       F  0.66960193  0.08648580  0.94060385    -0.20600
F1661       F  0.63399251  0.08134743  0.98693249    -0.20300
F1662       F  0.60438960  0.27080339  0.45465704    -0.20400
F1663       F  0.57243752  0.24951665  0.49932371    -0.20700
F1664       F  0.55411783  0.24167572  0.44570686    -0.23400
C1665       C  0.36384827  0.53631938  0.93243735    -0.06200
C1666       C  0.39409084  0.54467616  0.91287824    -0.00300
C1667       C  0.40509282  0.58032902  0.91077866    -0.08800
C1668       C  0.38652233  0.60610497  0.93015459    -0.06200
C1669       C  0.35765539  0.59706940  0.95138568    -0.00300
C1670       C  0.34543508  0.56182150  0.95176617    -0.08700
C1671       C  0.31288416  0.55112836  0.97203954     0.61600
H1672       H  0.35524485  0.50901102  0.93367110     0.12300
H1673       H  0.39515507  0.63348317  0.92965876     0.12300
C1674       C  0.43546080  0.59110446  0.88768364     0.61900
F1675       F  0.30248874  0.51679239  0.96442471    -0.23300
F1676       F  0.28509690  0.57361477  0.96443655    -0.20600
F1677       F  0.31984033  0.55292025  0.00667550    -0.20300
F1678       F  0.43016701  0.57781201  0.85503774    -0.20400
F1679       F  0.46682272  0.57786092  0.90028411    -0.20700
F1680       F  0.43947544  0.62290728  0.38800007    -0.23400
C1681       C  0.46052962  0.63986852  0.58927899    -0.06200
C1682       C  0.45300009  0.60827621  0.60738922    -0.00300
C1683       C  0.41924374  0.59264942  0.60342714    -0.08800
C1684       C  0.39508114  0.60866481  0.58103258    -0.06200
C1685       C  0.40272864  0.64001496  0.56300723    -0.00300
C1686       C  0.43593605  0.65607295  0.56729451    -0.08700
C1687       C  0.44489298  0.69059375  0.54962290     0.61600
H1688       H  0.48632406  0.65175269  0.59195080     0.12300
H1689       H  0.36941573  0.59670200  0.57748481     0.12300
C1690       C  0.40785471  0.55997979  0.62321284     0.61900
F1691       F  0.47761443  0.70332342  0.55922759    -0.23300
F1692       F  0.41986547  0.71605548  0.55807047    -0.20600
F1693       F  0.44534211  0.68534757  0.51458478    -0.20300
F1694       F  0.41343060  0.56538416  0.65777240    -0.20400
F1695       F  0.42672511  0.53059420  0.61206640    -0.20700
F1696       F  0.37235588  0.55270071  0.61891714    -0.23400
C1697       C  0.90918734  0.56785758  0.84556551    -0.06200
C1698       C  0.88847951  0.53990281  0.85759361    -0.00300
C1699       C  0.85106962  0.54199222  0.85266039    -0.08800
C1700       C  0.83718361  0.56829539  0.83105081    -0.06200
C1701       C  0.85835374  0.59490120  0.81745230    -0.00300
C1702       C  0.89462372  0.59628156  0.82709021    -0.08700
C1703       C  0.91864149  0.62685672  0.81766481     0.61600
H1704       H  0.93728741  0.56698799  0.85025083     0.12300
H1705       H  0.80924508  0.56885907  0.82533077     0.12300
C1706       C  0.82515251  0.51791801  0.87073564     0.61900
F1707       F  0.95182259  0.62341967  0.83188904    -0.23300
F1708       F  0.90476614  0.65846749  0.82975627    -0.20600
F1709       F  0.92276080  0.62797582  0.78267057    -0.20300
F1710       F  0.83442068  0.51516727  0.90472209    -0.20400
F1711       F  0.82499719  0.48487085  0.85521095    -0.20700
F1712       F  0.79107430  0.53131673  0.86991049    -0.23400
C1713       C  0.85261592  0.36107770  0.96332380    -0.06200
C1714       C  0.84463881  0.39422623  0.94873546    -0.00300
C1715       C  0.81292711  0.41143687  0.95793523    -0.08800
C1716       C  0.78861887  0.39339349  0.97874782    -0.06200
C1717       C  0.79488666  0.35848084  0.99045249    -0.00300
C1718       C  0.82857014  0.34311355  0.98462912    -0.08700
C1719       C  0.84039005  0.30769165  0.49508950     0.61600
H1720       H  0.87769133  0.34862500  0.95704067     0.12300
H1721       H  0.76339261  0.40589214  0.98405844     0.12300
C1722       C  0.80500777  0.44863707  0.94595363     0.61900
F1723       F  0.87669417  0.30346453  0.49413485    -0.23300
F1724       F  0.82546377  0.27900935  0.47844051    -0.20600
F1725       F  0.82980596  0.30790774  0.52902415    -0.20300
F1726       F  0.80232150  0.44859179  0.91075326    -0.20400
F1727       F  0.83198237  0.47090400  0.95604543    -0.20700
F1728       F  0.77369945  0.46173609  0.95953582    -0.23400
C1729       C  0.96104347  0.63964639  0.67212312    -0.06200
C1730       C  0.95529250  0.60459112  0.66000026    -0.00300
C1731       C  0.92351943  0.58716636  0.66963848    -0.08800
C1732       C  0.89930801  0.60550099  0.69076669    -0.06200
C1733       C  0.90554397  0.64004919  0.70300560    -0.00300
C1734       C  0.93673092  0.65762868  0.69352102    -0.08700
C1735       C  0.94381528  0.69534279  0.70536215     0.61600
H1736       H  0.98521101  0.65303551  0.66517719     0.12300
H1737       H  0.87494743  0.59273897  0.69835489     0.12300
C1738       C  0.91474389  0.54945971  0.65848851     0.61900
F1739       F  0.94702787  0.69610036  0.74056877    -0.23300
F1740       F  0.91621807  0.71725591  0.69587097    -0.20600
F1741       F  0.97458626  0.70867949  0.69123961    -0.20300
F1742       F  0.93846181  0.52587872  0.67269321    -0.20400
F1743       F  0.91590487  0.54682433  0.62318713    -0.20700
F1744       F  0.88130310  0.53938562  0.66898351    -0.23400
C1745       C  0.00972790  0.50652227  0.97859828    -0.06200
C1746       C  0.98689321  0.47715767  0.98251182    -0.00300
C1747       C  0.97402122  0.46931924  0.01567917    -0.08800
C1748       C  0.00726335  0.47305240  0.53558218    -0.06200
C1749       C  0.00844051  0.51072602  0.53653713    -0.00300
C1750       C  0.99739939  0.52921749  0.50695755    -0.08700
C1751       C  0.99709553  0.56951531  0.50551609     0.61600
H1752       H  0.01864471  0.51315092  0.95307669     0.12300
H1753       H  0.01547320  0.45857351  0.55799156     0.12300
C1754       C  0.94582755  0.44142935  0.02131873     0.61900
F1755       F  0.98536553  0.58196952  0.47431586    -0.23300
F1756       F  0.03087521  0.58229766  0.51036604    -0.20600
F1757       F  0.97478519  0.58294783  0.53061382    -0.20300
F1758       F  0.95883438  0.40822038  0.01268707    -0.20400
F1759       F  0.91681799  0.44910080  0.00134053    -0.20700
F1760       F  0.93462432  0.44043232  0.05508300    -0.23400
C1761       C  0.97011448  0.51085107  0.77668897    -0.06200
C1762       C  0.97298991  0.47394109  0.78068789    -0.00300
C1763       C  0.00108711  0.45584803  0.76369909    -0.08800
C1764       C  0.02566918  0.47513996  0.74423875    -0.06200
C1765       C  0.02229650  0.51177990  0.73959182    -0.00300
C1766       C  0.99422110  0.53006908  0.75640131    -0.08700
C1767       C  0.98893637  0.56994057  0.75422046     0.61600
H1768       H  0.94999132  0.52518220  0.79106350     0.12300
H1769       H  0.04617042  0.46088178  0.73025916     0.12300
C1770       C  0.00644016  0.41609257  0.76554550     0.61900
F1771       F  0.99055479  0.58435102  0.78674458    -0.23300
F1772       F  0.95607823  0.57691475  0.74069334    -0.20600
F1773       F  0.01412700  0.58667895  0.73435698    -0.20300
F1774       F  0.97814925  0.39894498  0.78051360    -0.20400
F1775       F  0.03663033  0.40927196  0.78403716    -0.20700
F1776       F  0.01068258  0.40231822  0.73290533    -0.23400
C1777       C  0.21179254  0.59658322  0.55444355    -0.06200
C1778       C  0.20296555  0.62426139  0.53184752    -0.00300
C1779       C  0.16711013  0.63204889  0.52603584    -0.08800
C1780       C  0.14144738  0.61434627  0.54576638    -0.06200
C1781       C  0.15053339  0.58940807  0.57125037    -0.00300
C1782       C  0.18632632  0.57933884  0.57469157    -0.08700
C1783       C  0.19799311  0.55116259  0.59989425     0.61600
H1784       H  0.23937648  0.59033492  0.55822679     0.12300
H1785       H  0.11398916  0.62152948  0.54254415     0.12300
C1786       C  0.15592135  0.65885523  0.49934212     0.61900
F1787       F  0.23313907  0.54201423  0.59535706    -0.23300
F1788       F  0.17809504  0.52077263  0.59550837    -0.20600
F1789       F  0.19388426  0.56370739  0.63299506    -0.20300
F1790       F  0.12660601  0.66523121  0.99956643    -0.20400
F1791       F  0.17511951  0.65370964  0.46948780    -0.20700
F1792       F  0.16158455  0.69291695  0.51133931    -0.23400
C1793       C  0.35305194  0.36913982  0.80605017    -0.06200
C1794       C  0.34672575  0.40227699  0.82175382    -0.00300
C1795       C  0.31520609  0.42062792  0.81483810    -0.08800
C1796       C  0.28986208  0.40381914  0.79416637    -0.06200
C1797       C  0.29407215  0.36838811  0.78232683    -0.00300
C1798       C  0.32694307  0.35117829  0.78737894    -0.08700
C1799       C  0.33381097  0.31313358  0.77604458     0.61600
H1800       H  0.37812429  0.35617077  0.81067192     0.12300
H1801       H  0.26498729  0.41723405  0.78965595     0.12300
C1802       C  0.30834958  0.45740860  0.82950720     0.63500
F1803       F  0.36842765  0.30289946  0.78157919    -0.23300
F1804       F  0.32718963  0.30954078  0.74145521    -0.20600
F1805       F  0.31238700  0.29042344  0.79435105    -0.20300
F1806       F  0.33592188  0.47971281  0.82100707    -0.20400
F1807       F  0.30546149  0.45556417  0.86473043    -0.20700
F1808       F  0.27747926  0.47206957  0.81703340    -0.23400
C1809       C  0.25932409  0.23607515  0.66998019    -0.06200
C1810       C  0.22842763  0.25734568  0.66792867    -0.00300
C1811       C  0.21679547  0.26771766  0.63497034    -0.08800
C1812       C  0.23595164  0.25584414  0.60586285    -0.06200
C1813       C  0.26650512  0.23451248  0.60822988    -0.00300
C1814       C  0.27856038  0.22461988  0.64090460    -0.08700
C1815       C  0.31077849  0.20095584  0.64508618     0.61600
H1816       H  0.26855607  0.22803892  0.69490809     0.12300
H1817       H  0.22703986  0.26313597  0.58057556     0.12300
C1818       C  0.18468410  0.29134573  0.63013458     0.61900
F1819       F  0.31673568  0.19252734  0.67899075    -0.23300
F1820       F  0.34042347  0.21807460  0.63279264    -0.20600
F1821       F  0.30607752  0.16956788  0.62718127    -0.20300
F1822       F  0.18920970  0.32306457  0.64757162    -0.20400
F1823       F  0.15489369  0.27435211  0.64226555    -0.20700
F1824       F  0.17913923  0.29925499  0.59603095    -0.23400
C1825       C  0.20777182  0.25021746  0.87673736    -0.06200
C1826       C  0.22303477  0.28397421  0.87306436    -0.00300
C1827       C  0.25541898  0.29108470  0.88896363    -0.08800
C1828       C  0.27377254  0.26320148  0.90424454    -0.06200
C1829       C  0.25845813  0.22954610  0.90915370    -0.00300
C1830       C  0.22446256  0.22317228  0.89568625    -0.08700
C1831       C  0.20537531  0.18888266  0.90276889     0.61600
H1832       H  0.18337419  0.24479411  0.86346614     0.12300
H1833       H  0.29924883  0.26870877  0.91538356     0.12300
C1834       C  0.27210415  0.32755622  0.88760719     0.61900
F1835       F  0.17290069  0.18758389  0.88693681    -0.23300
F1836       F  0.19974890  0.18628270  0.93743799    -0.20600
F1837       F  0.22544015  0.16033481  0.89149481    -0.20300
F1838       F  0.24664512  0.35370914  0.88398546    -0.20400
F1839       F  0.29528059  0.32908769  0.86028044    -0.20700
F1840       F  0.29028725  0.33448574  0.91750926    -0.23400
C1841       C  0.09476853  0.35029552  0.85649199    -0.06200
C1842       C  0.08537377  0.33426593  0.82499424    -0.00300
C1843       C  0.04973745  0.33518794  0.81484761    -0.08800
C1844       C  0.02525936  0.35415099  0.83544799    -0.06200
C1845       C  0.03568514  0.37356801  0.86465827    -0.00300
C1846       C  0.07062805  0.37042624  0.87623727    -0.08700
C1847       C  0.08219287  0.38824645  0.90918276     0.61600
H1848       H  0.12209767  0.34903587  0.86434011     0.12300
H1849       H  0.99795045  0.35575640  0.82773090     0.12300
C1850       C  0.03819817  0.31837031  0.78145718     0.61900
F1851       F  0.11655320  0.37938207  0.91751505    -0.23300
F1852       F  0.06044006  0.37781564  0.93581368    -0.20600
F1853       F  0.08018070  0.42471093  0.90576843    -0.20300
F1854       F  0.04622602  0.28252853  0.78164184    -0.20400
F1855       F  0.05553805  0.33432526  0.75439213    -0.20700
F1856       F  0.00224686  0.32201869  0.77641473    -0.23400
C1857       C  0.10977999  0.38780041  0.68752104    -0.06200
C1858       C  0.14138214  0.39602705  0.70505440    -0.00300
C1859       C  0.15654116  0.43000431  0.70036883    -0.08800
C1860       C  0.13879070  0.45455416  0.67960077    -0.06200
C1861       C  0.10604964  0.44706845  0.66414962    -0.00300
C1862       C  0.09169703  0.41275111  0.66740368    -0.08700
C1863       C  0.05756287  0.40235164  0.64985644     0.61600
H1864       H  0.09814442  0.36184069  0.69075033     0.12300
H1865       H  0.14965466  0.48091940  0.67699709     0.12300
C1866       C  0.19067940  0.44112412  0.71758693     0.61900
F1867       F  0.05197413  0.36607290  0.65096630    -0.23300
F1868       F  0.05873946  0.41227240  0.61584159    -0.20600
F1869       F  0.02925697  0.41888147  0.66581444    -0.20300
F1870       F  0.21708681  0.41677359  0.71012121    -0.20400
F1871       F  0.18558819  0.44326575  0.75261525    -0.20700
F1872       F  0.20210541  0.47404645  0.70661510    -0.23400
C1873       C  0.64867402  0.11307595  0.79703890    -0.06200
C1874       C  0.65734780  0.08706826  0.82159838    -0.00300
C1875       C  0.69311182  0.07727647  0.82566886    -0.08800
C1876       C  0.71894864  0.09599587  0.80723893    -0.06200
C1877       C  0.71041801  0.12407587  0.78491070    -0.00300
C1878       C  0.67463229  0.13171053  0.77854316    -0.08700
C1879       C  0.66387218  0.15939897  0.75258656     0.61600
H1880       H  0.62124429  0.12017544  0.79352440     0.12300
H1881       H  0.74645296  0.09001905  0.81189545     0.12300
C1882       C  0.70438443  0.04769497  0.84952309     0.61900
F1883       F  0.62831663  0.15724177  0.74498180    -0.23300
F1884       F  0.68271249  0.15433237  0.72250042    -0.20600
F1885       F  0.67050612  0.19300939  0.76533088    -0.20300
F1886       F  0.68314364  0.01827473  0.84492853    -0.20400
F1887       F  0.70189362  0.05921591  0.88306661    -0.20700
F1888       F  0.73892967  0.03723491  0.84339799    -0.23400
C1889       C  0.74222540  0.21086893  0.65091136    -0.06200
C1890       C  0.77328448  0.22857868  0.66083891    -0.00300
C1891       C  0.78389416  0.25915970  0.64274595    -0.08800
C1892       C  0.76231394  0.27148744  0.61607464    -0.06200
C1893       C  0.73089443  0.25414936  0.60661233    -0.00300
C1894       C  0.72102836  0.22279353  0.62383594    -0.08700
C1895       C  0.68939326  0.20105123  0.61280116     0.61600
H1896       H  0.73450207  0.18737028  0.66491375     0.12300
H1897       H  0.77009090  0.29486348  0.60190736     0.12300
C1898       C  0.81729272  0.27909807  0.65183990     0.61900
F1899       F  0.68500277  0.17114703  0.63281378    -0.23300
F1900       F  0.69393807  0.19002607  0.57923939    -0.20600
F1901       F  0.65898181  0.22124813  0.61554207    -0.20300
F1902       F  0.84623736  0.25708010  0.64724455    -0.20400
F1903       F  0.81567898  0.29024873  0.68553457    -0.20700
F1904       F  0.82205887  0.30876672  0.63161060    -0.23400
C1905       C  0.78118040  0.25462417  0.87034274    -0.06200
C1906       C  0.76565386  0.22142281  0.86322416    -0.00300
C1907       C  0.73223832  0.21346678  0.87714680    -0.08800
C1908       C  0.71572476  0.23896114  0.89790621    -0.06200
C1909       C  0.73157241  0.27183378  0.90556198    -0.00300
C1910       C  0.76387643  0.28063244  0.88998947    -0.08700
C1911       C  0.77967306  0.31721205  0.89374494     0.61600
H1912       H  0.80611806  0.26096998  0.85808013     0.12300
H1913       H  0.69077589  0.23261906  0.91003580     0.12300
C1914       C  0.71321335  0.17924338  0.86885862     0.61900
F1915       F  0.81028960  0.32088636  0.87476091    -0.23300
F1916       F  0.78779697  0.32332879  0.92736601    -0.20600
F1917       F  0.75568120  0.34247651  0.88295612    -0.20300
F1918       F  0.73470787  0.15047018  0.87582949    -0.20400
F1919       F  0.70440866  0.17918605  0.83476553    -0.20700
F1920       F  0.68237250  0.17558294  0.88764699    -0.23400
C1921       C  0.85560762  0.34501777  0.81822679    -0.06200
C1922       C  0.88523744  0.33515957  0.83773426    -0.00300
C1923       C  0.89668629  0.29954098  0.83701552    -0.08800
C1924       C  0.87994578  0.27581309  0.81433859    -0.06200
C1925       C  0.85166460  0.28619475  0.79292347    -0.00300
C1926       C  0.83789652  0.32097339  0.79661089    -0.08700
C1927       C  0.80510187  0.33304370  0.77791073     0.61600
H1928       H  0.84633925  0.37219986  0.82011403     0.12300
H1929       H  0.88906327  0.24857626  0.81325769     0.12300
C1930       C  0.92687870  0.28689348  0.85922791     0.61900
F1931       F  0.79672224  0.36812361  0.78511970    -0.23300
F1932       F  0.77666502  0.31251113  0.78775433    -0.20600
F1933       F  0.81039813  0.32988992  0.74304874    -0.20300
F1934       F  0.91796641  0.29129432  0.89335429    -0.20400
F1935       F  0.95688828  0.30626945  0.85210288    -0.20700
F1936       F  0.93461444  0.25133609  0.85375819    -0.23400
C1937       C  0.78244546  0.88871244  0.56111245    -0.06200
C1938       C  0.79056306  0.85935769  0.53976030    -0.00300
C1939       C  0.82616709  0.84921548  0.53522434    -0.08800
C1940       C  0.85226972  0.86817813  0.55305221    -0.06200
C1941       C  0.84390589  0.89594225  0.57622036    -0.00300
C1942       C  0.80837744  0.90685424  0.57991406    -0.08700
C1943       C  0.79764988  0.93714476  0.60365970     0.61600
H1944       H  0.75506601  0.89624276  0.56458699     0.12300
H1945       H  0.87953111  0.85981814  0.55052678     0.12300
C1946       C  0.83354676  0.81981664  0.00689995     0.61900
F1947       F  0.76257603  0.94655894  0.59957961    -0.23300
F1948       F  0.81799919  0.96671906  0.59688740    -0.20600
F1949       F  0.80220938  0.92719545  0.63732854    -0.20300
F1950       F  0.81725631  0.82737789  0.97619076    -0.20400
F1951       F  0.82310840  0.78662640  0.01782580    -0.20700
F1952       F  0.86962711  0.81887935  0.00118053    -0.23400
C1953       C  0.90657370  0.82708845  0.71883218    -0.06200
C1954       C  0.89343394  0.83268347  0.68576557    -0.00300
C1955       C  0.86235087  0.81489108  0.67543026    -0.08800
C1956       C  0.84459958  0.79345957  0.69926796    -0.06200
C1957       C  0.85733158  0.78855651  0.73250475    -0.00300
C1958       C  0.88938958  0.80478928  0.74227717    -0.08700
C1959       C  0.90488148  0.79941298  0.77761424     0.61600
H1960       H  0.93020356  0.84110340  0.72638786     0.12300
H1961       H  0.82074817  0.77996104  0.69188352     0.12300
C1962       C  0.84656054  0.82005799  0.64032315     0.61900
F1963       F  0.93323676  0.82165728  0.78348310    -0.23300
F1964       F  0.91660052  0.76482778  0.78101439    -0.20600
F1965       F  0.87945167  0.80649614  0.80226692    -0.20300
F1966       F  0.87136169  0.81256955  0.61518789    -0.20400
F1967       F  0.83504880  0.85460346  0.63750259    -0.20700
F1968       F  0.81792858  0.79820851  0.63488865    -0.23400
C1969       C  0.86285322  0.03057906  0.68788700    -0.06200
C1970       C  0.89348537  0.03749527  0.66837015    -0.00300
C1971       C  0.90635000  0.07251996  0.66624981    -0.08800
C1972       C  0.88855679  0.09933326  0.68475944    -0.06200
C1973       C  0.85895452  0.09192233  0.70548179    -0.00300
C1974       C  0.84541660  0.05715998  0.70671519    -0.08700
C1975       C  0.81270181  0.04809585  0.72754509     0.61600
H1976       H  0.85330514  0.00358750  0.68956024     0.12300
H1977       H  0.89842572  0.12628267  0.68408479     0.12300
C1978       C  0.93821313  0.08161891  0.64436122     0.61900
F1979       F  0.80095094  0.01404484  0.72069493    -0.23300
F1980       F  0.78563954  0.07142520  0.71986842    -0.20600
F1981       F  0.82015654  0.05030084  0.76207377    -0.20300
F1982       F  0.93398846  0.06792958  0.61171425    -0.20400
F1983       F  0.96838763  0.06747725  0.65865624    -0.20700
F1984       F  0.94273743  0.11795201  0.64167364    -0.23400
C1985       C  0.13214824  0.63844351  0.71516572    -0.06200
C1986       C  0.10981636  0.64913495  0.68797117    -0.00300
C1987       C  0.10621848  0.68596646  0.68167945    -0.08800
C1988       C  0.12410130  0.71026563  0.70317209    -0.06200
C1989       C  0.14518747  0.69945506  0.73100273    -0.00300
C1990       C  0.14957101  0.66282248  0.73688965    -0.08700
C1991       C  0.17118597  0.64954143  0.76677937     0.61600
H1992       H  0.13573198  0.61038023  0.71975459     0.12300
H1993       H  0.12125881  0.73846848  0.69867888     0.12300
C1994       C  0.08281615  0.69989401  0.65336090     0.61900
F1995       F  0.17033639  0.61289219  0.76932634    -0.23300
F1996       F  0.15798750  0.66373080  0.79699474    -0.20600
F1997       F  0.20596932  0.65967707  0.76274462    -0.20300
F1998       F  0.04883288  0.68748486  0.65787461    -0.20400
F1999       F  0.09561113  0.68872154  0.62188264    -0.20700
F2000       F  0.08145154  0.73664004  0.65316787    -0.23400
C2001       C  0.25336112  0.73493829  0.85438471    -0.06200
C2002       C  0.22420547  0.75803837  0.85856263    -0.00300
C2003       C  0.21538703  0.77036818  0.89170791    -0.08800
C2004       C  0.23620827  0.75910356  0.91953341    -0.06200
C2005       C  0.26567497  0.73627527  0.91527237    -0.00300
C2006       C  0.27406416  0.72356066  0.88214518    -0.08700
C2007       C  0.30363637  0.69691868  0.87630968     0.61600
H2008       H  0.25987658  0.72578833  0.82878731     0.12300
H2009       H  0.22965958  0.76826274  0.94511831     0.12300
C2010       C  0.18508754  0.79622211  0.89741486     0.61900
F2011       F  0.30633182  0.68669892  0.84231292    -0.23300
F2012       F  0.29734640  0.66686480  0.89554514    -0.20600
F2013       F  0.33549246  0.71161908  0.88580685    -0.20300
F2014       F  0.15384467  0.78097393  0.88683663    -0.20400
F2015       F  0.19102114  0.82684297  0.87890873    -0.20700
F2016       F  0.18134588  0.80557976  0.93155700    -0.23400
C2017       C  0.21074788  0.73964686  0.64242441    -0.06200
C2018       C  0.23342677  0.76409301  0.65798993    -0.00300
C2019       C  0.27040449  0.75975120  0.65373418    -0.08800
C2020       C  0.28310032  0.73352213  0.63120890    -0.06200
C2021       C  0.26028553  0.70990349  0.61479217    -0.00300
C2022       C  0.22375383  0.71166117  0.62206376    -0.08700
C2023       C  0.19828978  0.68473924  0.60787793     0.61600
H2024       H  0.18274045  0.74133856  0.64806989     0.12300
H2025       H  0.31105350  0.73179412  0.62538941     0.12300
C2026       C  0.29652099  0.78066710  0.67477341     0.61900
F2027       F  0.16782538  0.68324309  0.62744367    -0.23300
F2028       F  0.21346352  0.65135358  0.60801911    -0.20600
F2029       F  0.18933191  0.69402461  0.57502561    -0.20300
F2030       F  0.29689069  0.76760319  0.70771459    -0.20400
F2031       F  0.28687805  0.81598462  0.67530615    -0.20700
F2032       F  0.33044482  0.77812374  0.66160479    -0.23400
C2033       C  0.09820681  0.86561311  0.67462707    -0.06200
C2034       C  0.08706357  0.84206499  0.70059774    -0.00300
C2035       C  0.05056001  0.83627874  0.70539010    -0.08800
C2036       C  0.02672973  0.85313068  0.68305186    -0.06200
C2037       C  0.03805714  0.87706187  0.65758877    -0.00300
C2038       C  0.07439233  0.88371931  0.65349492    -0.08700
C2039       C  0.08811478  0.90970434  0.62701596     0.61600
H2040       H  0.12608282  0.87081532  0.67158163     0.12300
H2041       H  0.99869193  0.84882194  0.68625955     0.12300
C2042       C  0.03675413  0.81294507  0.73394999     0.61900
F2043       F  0.12447044  0.90807047  0.62371093    -0.23300
F2044       F  0.07908159  0.94395570  0.63665957    -0.20600
F2045       F  0.07371800  0.90215239  0.59536046    -0.20300
F2046       F  0.04518459  0.82785802  0.76526180    -0.20400
F2047       F  0.05166983  0.77945100  0.73134024    -0.20700
F2048       F  0.00044566  0.80935055  0.73279035    -0.23400
C2049       C  0.12369846  0.21381634  0.81948865    -0.06200
C2050       C  0.15569071  0.20354375  0.80385900    -0.00300
C2051       C  0.16841782  0.16868602  0.80824178    -0.08800
C2052       C  0.14666857  0.14416592  0.82538845    -0.06200
C2053       C  0.11386544  0.15412610  0.84003634    -0.00300
C2054       C  0.10295441  0.18998988  0.83841151    -0.08700
C2055       C  0.06952307  0.20311090  0.85586786     0.61600
H2056       H  0.11517448  0.24109435  0.81697938     0.12300
H2057       H  0.15545597  0.11693170  0.82802286     0.12300
C2058       C  0.20460915  0.15767839  0.79517095     0.61900
F2059       F  0.07264086  0.19958920  0.89084240    -0.23300
F2060       F  0.04109682  0.18358684  0.84469593    -0.20600
F2061       F  0.06285110  0.23854106  0.84904942    -0.20300
F2062       F  0.23014497  0.17673065  0.81241381    -0.20400
F2063       F  0.20742823  0.16440493  0.76052241    -0.20700
F2064       F  0.21104544  0.12188597  0.80026389    -0.23400
C2065       C  0.17412714  0.14291349  0.98925921    -0.06200
C2066       C  0.20708854  0.12626251  0.98799076    -0.00300
C2067       C  0.20944639  0.09181966  0.97222782    -0.08800
C2068       C  0.18068379  0.07916640  0.95296950    -0.06200
C2069       C  0.14884963  0.09776796  0.95123932    -0.00300
C2070       C  0.14483015  0.12947802  0.97140390    -0.08700
C2071       C  0.11082169  0.15093212  0.97285707     0.61600
H2072       H  0.17214648  0.16805258  0.00269397     0.12300
H2073       H  0.18290885  0.05444004  0.93882654     0.12300
C2074       C  0.24167526  0.06785211  0.97498935     0.61900
F2075       F  0.11401710  0.18161345  0.99229525    -0.23300
F2076       F  0.08421617  0.13108288  0.98737270    -0.20600
F2077       F  0.10157632  0.16104431  0.94036265    -0.20300
F2078       F  0.25623379  0.06577377  0.48332075    -0.20400
F2079       F  0.26843121  0.08009832  0.95411002    -0.20700
F2080       F  0.23428642  0.03335585  0.96495941    -0.23400
C2081       C  0.00298682  0.00773807  0.54163662    -0.06200
C2082       C  0.98360177  0.97602783  0.53796857    -0.00300
C2083       C  0.97209573  0.96600144  0.50491967    -0.08800
C2084       C  0.97954918  0.99243226  0.97978052    -0.06200
C2085       C  0.00630604  0.01809504  0.98290163    -0.00300
C2086       C  0.01164892  0.02963784  0.51378713    -0.08700
C2087       C  0.03441493  0.06195146  0.51964601     0.61600
H2088       H  0.01188448  0.01519725  0.56694170     0.12300
H2089       H  0.96722315  0.98887831  0.95505753     0.12300
C2090       C  0.95056392  0.93266308  0.49891043     0.61900
F2091       F  0.04309302  0.06641971  0.55375718    -0.23300
F2092       F  0.01664426  0.09212834  0.50931821    -0.20600
F2093       F  0.06539649  0.05797697  0.50121364    -0.20300
F2094       F  0.92015682  0.93393278  0.51855651    -0.20400
F2095       F  0.97020894  0.90307176  0.50754422    -0.20700
F2096       F  0.92355497  0.94754983  0.97113078    -0.23400
C2097       C  0.02949649  0.97847242  0.77659922    -0.06200
C2098       C  0.02328773  0.01489830  0.78158364    -0.00300
C2099       C  0.99356925  0.03058916  0.76539304    -0.08800
C2100       C  0.97090921  0.00934062  0.74562239    -0.06200
C2101       C  0.97723896  0.97304846  0.74049611    -0.00300
C2102       C  0.00674586  0.95719645  0.75680703    -0.08700
C2103       C  0.01468840  0.91773968  0.75515331     0.61600
H2104       H  0.05087297  0.96587196  0.79038174     0.12300
H2105       H  0.94921579  0.02182971  0.73219453     0.12300
C2106       C  0.98440162  0.06967983  0.76829283     0.61900
F2107       F  0.01636043  0.90447461  0.78803719    -0.23300
F2108       F  0.04696926  0.91244223  0.73923183    -0.20600
F2109       F  0.98922640  0.89874312  0.73779053    -0.20300
F2110       F  0.01061859  0.08926305  0.78390073    -0.20400
F2111       F  0.95339289  0.07334304  0.78680131    -0.20700
F2112       F  0.97938341  0.08350715  0.73596253    -0.23400
C2113       C  0.89694698  0.12101345  0.84446290    -0.06200
C2114       C  0.90780936  0.14474390  0.81857855    -0.00300
C2115       C  0.94412194  0.15131546  0.81378505    -0.08800
C2116       C  0.96807878  0.13466634  0.83589772    -0.06200
C2117       C  0.95711428  0.11081129  0.86148720    -0.00300
C2118       C  0.92092090  0.10361286  0.86581216    -0.08700
C2119       C  0.90744611  0.07816020  0.89290182     0.61600
H2120       H  0.86913170  0.11530399  0.84744209     0.12300
H2121       H  0.99602718  0.13871052  0.83212511     0.12300
C2122       C  0.95772054  0.17476431  0.78518824     0.61900
F2123       F  0.87099105  0.07873280  0.89546541    -0.23300
F2124       F  0.92093791  0.08742106  0.92451379    -0.20600
F2125       F  0.91763690  0.04384800  0.88470342    -0.20300
F2126       F  0.94120206  0.20754287  0.78650847    -0.20400
F2127       F  0.95110739  0.15870472  0.75397969    -0.20700
F2128       F  0.99371179  0.18031196  0.78745811    -0.23400
C2129       C  0.10678745  0.88954363  0.83539895    -0.06200
C2130       C  0.13497136  0.89749703  0.81298899    -0.00300
C2131       C  0.14710303  0.93286813  0.81115759    -0.08800
C2132       C  0.13098643  0.95885021  0.83201482    -0.06200
C2133       C  0.10229259  0.95117570  0.85374477    -0.00300
C2134       C  0.08975426  0.91591534  0.85540018    -0.08700
C2135       C  0.05894927  0.90606317  0.87835416     0.61600
H2136       H  0.09747096  0.86241929  0.83642104     0.12300
H2137       H  0.13989575  0.98605042  0.83031022     0.12300
C2138       C  0.17693462  0.94327453  0.78744367     0.61900
F2139       F  0.05451246  0.86964443  0.88009547    -0.23300
F2140       F  0.02815443  0.92069345  0.86583027    -0.20600
F2141       F  0.06467898  0.91866313  0.91116213    -0.20300
F2142       F  0.16613635  0.93930652  0.75391999    -0.20400
F2143       F  0.20596507  0.92194271  0.79358302    -0.20700
F2144       F  0.18700875  0.97826429  0.79209476    -0.23400
C2145       C  0.33093160  0.80659970  0.56064191    -0.06200
C2146       C  0.35004060  0.79005032  0.53415935    -0.00300
C2147       C  0.38574277  0.80038513  0.52852053    -0.08800
C2148       C  0.40204472  0.82365500  0.55205948    -0.06200
C2149       C  0.38336158  0.83890569  0.57950423    -0.00300
C2150       C  0.34653453  0.83217802  0.58226440    -0.08700
C2151       C  0.32338809  0.85317431  0.60677629     0.61600
H2152       H  0.30354989  0.79936506  0.56426257     0.12300
H2153       H  0.42933636  0.83125261  0.54840435     0.12300
C2154       C  0.41138660  0.79196142  0.99780716     0.61900
F2155       F  0.28887629  0.84121507  0.60698947    -0.23300
F2156       F  0.32296905  0.88843752  0.59717871    -0.20600
F2157       F  0.33655737  0.85027773  0.63940629    -0.20300
F2158       F  0.39053026  0.79204217  0.96886695    -0.20400
F2159       F  0.42461748  0.75824018  0.00270163    -0.20700
F2160       F  0.43946301  0.81457380  0.99187848    -0.23400
C2161       C  0.47496623  0.00873269  0.73627204    -0.06200
C2162       C  0.48712971  0.97382828  0.72933623    -0.00300
C2163       C  0.51271566  0.95892689  0.75133739    -0.08800
C2164       C  0.52464934  0.97935703  0.77941914    -0.06200
C2165       C  0.51264970  0.01434858  0.78605013    -0.00300
C2166       C  0.48750468  0.02938329  0.76384248    -0.08700
C2167       C  0.47368734  0.06687812  0.76924781     0.61600
H2168       H  0.45553683  0.02019402  0.71934002     0.12300
H2169       H  0.54378148  0.96796478  0.79672602     0.12300
C2170       C  0.52820445  0.92223940  0.74487446     0.61900
F2171       F  0.44765553  0.07551495  0.74600067    -0.23300
F2172       F  0.50105865  0.09069198  0.76521855    -0.20600
F2173       F  0.45948615  0.07042442  0.80178350    -0.20300
F2174       F  0.54351529  0.92088864  0.71266784    -0.20400
F2175       F  0.50191855  0.89698776  0.74708153    -0.20700
F2176       F  0.55390420  0.91367657  0.76850605    -0.23400
C2177       C  0.47308156  0.01543963  0.53053779    -0.06200
C2178       C  0.46637606  0.97885614  0.52856045    -0.00300
C2179       C  0.48735645  0.95750057  0.50644801    -0.08800
C2180       C  0.51187252  0.97277234  0.98042538    -0.06200
C2181       C  0.52776233  0.00599775  0.98651536    -0.00300
C2182       C  0.50094775  0.03117486  0.51228035    -0.08700
C2183       C  0.50817534  0.07019164  0.51874551     0.61600
H2184       H  0.45839789  0.03143776  0.54895248     0.12300
H2185       H  0.51875528  0.95848084  0.95719056     0.12300
C2186       C  0.48085327  0.91781634  0.50362893     0.61900
F2187       F  0.51357009  0.07551208  0.55336080    -0.23300
F2188       F  0.50875585  0.08700864  0.02590868    -0.20600
F2189       F  0.53779249  0.08217200  0.50155648    -0.20300
F2190       F  0.43422155  0.92581837  0.99276712    -0.20400
F2191       F  0.48897512  0.90137949  0.53414007    -0.20700
F2192       F  0.48375949  0.90699524  0.96652792    -0.23400
C2193       C  0.35479050  0.03367775  0.59005011    -0.06200
C2194       C  0.38654584  0.04145008  0.60717320    -0.00300
C2195       C  0.39945319  0.07659826  0.60665812    -0.08800
C2196       C  0.38055457  0.10239172  0.58815511    -0.06200
C2197       C  0.35022498  0.09386429  0.56902844    -0.00300
C2198       C  0.33677874  0.05906032  0.57047764    -0.08700
C2199       C  0.30419513  0.04839354  0.55082182     0.61600
H2200       H  0.34509797  0.00670050  0.59029167     0.12300
H2201       H  0.39057465  0.12924932  0.58691740     0.12300
C2202       C  0.43288140  0.08691316  0.62535004     0.61900
F2203       F  0.29247460  0.01493462  0.55983559    -0.23300
F2204       F  0.31214766  0.04785066  0.51633313    -0.20600
F2205       F  0.27713065  0.07232914  0.55722418    -0.20300
F2206       F  0.46188958  0.07216924  0.60897337    -0.20400
F2207       F  0.43142301  0.07489209  0.65870080    -0.20700
F2208       F  0.43735891  0.12337115  0.62632107    -0.23400
C2209       C  0.31267816  0.91020489  0.69529091    -0.06200
C2210       C  0.34607458  0.89560268  0.69964621    -0.00300
C2211       C  0.35023935  0.86672939  0.72291382    -0.08800
C2212       C  0.31996670  0.85227819  0.73879036    -0.06200
C2213       C  0.28594248  0.86519911  0.73230299    -0.00300
C2214       C  0.28242819  0.89568950  0.71058304    -0.08700
C2215       C  0.24730417  0.91221164  0.70075776     0.61600
H2216       H  0.31035851  0.93244183  0.67801871     0.12300
H2217       H  0.32245010  0.82949473  0.75536961     0.12300
C2218       C  0.38585931  0.84960639  0.72993436     0.61900
F2219       F  0.25116081  0.94191605  0.68036163    -0.23300
F2220       F  0.22938693  0.92306483  0.72969777    -0.20600
F2221       F  0.22771881  0.88802167  0.68240212    -0.20300
F2222       F  0.40848230  0.87433543  0.74405805    -0.20400
F2223       F  0.40005882  0.83622284  0.69985330    -0.20700
F2224       F  0.38324644  0.82171383  0.75272291    -0.23400
C2225       C  0.59314320  0.88412022  0.57063063    -0.06200
C2226       C  0.58923023  0.84810304  0.56242627    -0.00300
C2227       C  0.56030056  0.82906720  0.57516430    -0.08800
C2228       C  0.53518084  0.84731450  0.59532405    -0.06200
C2229       C  0.53865653  0.88380388  0.60377149    -0.00300
C2230       C  0.56862266  0.90253928  0.59126063    -0.08700
C2231       C  0.57541683  0.94151241  0.59919627     0.61600
H2232       H  0.61623955  0.89767139  0.56086160     0.12300
H2233       H  0.51261523  0.83277943  0.60480551     0.12300
C2234       C  0.55695931  0.78952540  0.56835415     0.61900
F2235       F  0.60738949  0.95291144  0.58598818    -0.23300
F2236       F  0.57631330  0.94683606  0.63422576    -0.20600
F2237       F  0.54929761  0.96228330  0.58493405    -0.20300
F2238       F  0.58568487  0.77192980  0.58200922    -0.20400
F2239       F  0.55599966  0.78323466  0.53348207    -0.20700
F2240       F  0.52660636  0.77567111  0.58282762    -0.23400
loop_ 
_geom_bond_atom_site_label_1 
_geom_bond_atom_site_label_2 
_geom_bond_distance 
_geom_bond_site_symmetry_2 
_ccdc_geom_bond_type 
O1           C16   1.254   1_565  A
O1           Al9   1.884       .  S
C2           O12   1.252       .  A
C2            O3   1.270       .  A
C2         C1109   1.481       .  S
O3           Al5   1.949       .  S
O4            C6   1.246       .  A
O4           Al5   1.835       .  S
Al5          O13   1.855       .  S
Al5          O15   1.974   1_565  S
Al5          O14   1.762       .  S
C6           O19   1.282       .  A
C6         C1058   1.469       .  S
O7           C17   1.250       .  A
O7           Al9   1.853       .  S
O8           C21   1.250       .  A
O8          Al18   1.859       .  S
Al9          O22   1.988       .  S
Al9          O19   2.009       .  S
Al9          O14   1.760       .  S
O10          C17   1.277       .  A
O10         Al18   1.987       .  S
O11          C20   1.282       .  A
O11         Al18   1.989       .  S
O12         Al18   1.871       .  S
O13          C20   1.259       .  A
O14         Al18   1.762       .  S
O15          C16   1.272       .  A
C16        C1074   1.486       .  S
C17        C1029   1.477       .  S
C20        C1042   1.494       .  S
C21          O22   1.281       .  A
C21        C1090   1.498       .  S
O23          C38   1.257   1_545  A
O23         Al31   1.879       .  S
C24          O34   1.255   1_655  A
C24          O25   1.267       .  A
C24         C997   1.480       .  S
O25         Al27   1.938   1_655  S
O26          C28   1.250       .  A
O26         Al27   1.844       .  S
Al27         O35   1.847       .  S
Al27         O37   1.968   1_545  S
Al27         O36   1.768       .  S
C28          O41   1.283       .  A
C28         C978   1.476       .  S
O29          C39   1.255       .  A
O29         Al31   1.863       .  S
O30          C43   1.252       .  A
O30         Al40   1.863       .  S
Al31         O44   1.988       .  S
Al31         O41   2.012       .  S
Al31         O36   1.753       .  S
O32          C39   1.279       .  A
O32         Al40   1.998       .  S
O33          C42   1.286       .  A
O33         Al40   2.007       .  S
O34         Al40   1.874       .  S
O35          C42   1.256       .  A
O36         Al40   1.760       .  S
O37          C38   1.270       .  A
C38        C1013   1.484       .  S
C39         C933   1.497       .  S
C42         C965   1.499       .  S
C43          O44   1.280       .  A
C43         C949   1.495       .  S
O45          C60   1.253       .  A
O45         Al53   1.874       .  S
C46          O56   1.255       .  A
C46          O47   1.281       .  A
C46         C869   1.490       .  S
O47         Al49   1.980       .  S
O48          C50   1.239       .  A
O48         Al49   1.816       .  S
Al49         O57   1.858       .  S
Al49         O59   1.979       .  S
Al49         O58   1.748       .  S
C50          O63   1.274       .  A
C50         C898   1.468       .  S
O51          C61   1.251       .  A
O51         Al53   1.859       .  S
O52          C65   1.264       .  A
O52         Al62   1.867       .  S
Al53         O66   1.985       .  S
Al53         O63   1.993       .  S
Al53         O58   1.753       .  S
O54          C61   1.273       .  A
O54         Al62   1.984       .  S
O55          C64   1.277       .  A
O55         Al62   1.992       .  S
O56         Al62   1.851       .  S
O57          C64   1.252       .  A
O58         Al62   1.783       .  S
O59          C60   1.279       .  A
C60        C1093   1.505       .  S
C61         C914   1.481       .  S
C64         C882   1.495       .  S
C65          O66   1.282       .  A
C65        C1010   1.481       .  S
O67          C82   1.274       .  A
O67         Al75   1.962       .  S
C68          O78   1.266       .  A
C68          O69   1.252   1_455  A
C68         C917   1.478       .  S
O69         Al71   1.863       .  S
O70          C72   1.276       .  A
O70         Al71   1.972       .  S
Al71         O79   1.979       .  S
Al71         O81   1.875       .  S
Al71         O80   1.766       .  S
C72          O85   1.253       .  A
C72         C834   1.472       .  S
O73          C83   1.277       .  A
O73         Al75   1.995       .  S
O74          C87   1.272       .  A
O74         Al84   1.971   1_545  S
Al75         O88   1.870       .  S
Al75         O85   1.852       .  S
Al75         O80   1.757       .  S
O76          C83   1.249       .  A
O76         Al84   1.852       .  S
O77          C86   1.257       .  A
O77         Al84   1.850       .  S
O78         Al84   1.936   1_455  S
O79          C86   1.280       .  A
O80         Al84   1.767       .  S
O81          C82   1.257       .  A
C82         C821   1.496       .  S
C83         C981   1.471       .  S
C86         C962   1.482       .  S
C87          O88   1.256   1_545  A
C87         C850   1.484       .  S
O89         C104   1.275       .  A
O89         Al97   1.965       .  S
C90         O100   1.276       .  A
C90          O91   1.252       .  A
C90         C805   1.478       .  S
O91         Al93   1.843       .  S
O92          C94   1.276       .  A
O92         Al93   1.982       .  S
Al93        O101   1.982       .  S
Al93        O103   1.863       .  S
Al93        O102   1.767       .  S
C94         O107   1.254       .  A
C94         C994   1.486       .  S
O95         C105   1.275       .  A
O95         Al97   1.998       .  S
O96         C109   1.275       .  A
O96        Al106   1.976       .  S
Al97        O110   1.860       .  S
Al97        O107   1.852       .  S
Al97        O102   1.751       .  S
O98         C105   1.243       .  A
O98        Al106   1.808       .  S
O99         C108   1.250       .  A
O99        Al106   1.841       .  S
O100       Al106   1.964       .  S
O101        C108   1.277       .  A
O102       Al106   1.757       .  S
O103        C104   1.258       .  A
C104        C853   1.473       .  S
C105        C786   1.471       .  S
C108        C770   1.469       .  S
C109        O110   1.252       .  A
C109        C757   1.485       .  S
O111        C126   1.272       .  A
O111       Al119   1.933       .  S
C112        O122   1.266       .  A
C112        O113   1.264       .  A
C112        C930   1.485       .  S
O113       Al115   1.911       .  S
O114        C116   1.270       .  A
O114       Al115   1.973       .  S
Al115       O123   1.969       .  S
Al115       O125   1.882       .  S
Al115       O124   1.783       .  S
C116        O129   1.244       .  A
C116        C722   1.497       .  S
O117        C127   1.266       .  A
O117       Al119   1.957       .  S
O118        C131   1.276       .  A
O118       Al128   1.946       .  S
Al119       O132   1.870       .  S
Al119       O129   1.827       .  S
Al119       O124   1.774       .  S
O120        C127   1.242       .  A
O120       Al128   1.839       .  S
O121        C130   1.249       .  A
O121       Al128   1.860       .  S
O122       Al128   1.921       .  S
O123        C130   1.270       .  A
O124       Al128   1.793       .  S
O125        C126   1.261       .  A
C126        C738   1.499       .  S
C127        C706   1.460       .  S
C130        C690   1.512       .  S
C131        O132   1.259       .  A
C131        C677   1.493       .  S
O133        C148   1.276       .  A
O133       Al141   1.974       .  S
C134        O144   1.270       .  A
C134        O135   1.258   1_655  A
C134        C610   1.495       .  S
O135       Al137   1.876       .  S
O136        C138   1.280       .  A
O136       Al137   2.000       .  S
Al137       O145   2.001       .  S
Al137       O147   1.863       .  S
Al137       O146   1.758       .  S
C138        O151   1.255       .  A
C138        C866   1.510       .  S
O139        C149   1.279       .  A
O139       Al141   2.000       .  S
O140        C153   1.274       .  A
O140       Al150   1.981       .  S
Al141       O154   1.874       .  S
Al141       O151   1.863       .  S
Al141       O146   1.760       .  S
O142        C149   1.246       .  A
O142       Al150   1.833       .  S
O143        C152   1.258       .  A
O143       Al150   1.861       .  S
O144       Al150   1.952   1_655  S
O145        C152   1.283       .  A
O146       Al150   1.761       .  S
O147        C148   1.257       .  A
C148        C661   1.489       .  S
C149        C645   1.466       .  S
C152        C629   1.497       .  S
C153        O154   1.255       .  A
C153        C741   1.497       .  S
O155        C170   1.251       .  A
O155       Al163   1.865       .  S
C156        O166   1.253   1_455  A
C156        O157   1.277       .  A
C156        C725   1.489       .  S
O157       Al159   1.973   1_455  S
O158        C160   1.244       .  A
O158       Al159   1.835       .  S
Al159       O167   1.862       .  S
Al159       O169   2.017       .  S
Al159       O168   1.752       .  S
C160        O173   1.278       .  A
C160        C642   1.470       .  S
O161        C171   1.253       .  A
O161       Al163   1.851       .  S
O162        C175   1.255       .  A
O162       Al172   1.863       .  S
Al163       O176   1.992       .  S
Al163       O173   2.004       .  S
Al163       O168   1.754       .  S
O164        C171   1.280       .  A
O164       Al172   2.001       .  S
O165        C174   1.283       .  A
O165       Al172   1.999       .  S
O166       Al172   1.868       .  S
O167        C174   1.258       .  A
O168       Al172   1.756       .  S
O169        C170   1.285       .  A
C170        C578   1.509       .  S
C171        C802   1.498       .  S
C174        C626   1.515       .  S
C175        O176   1.279       .  A
C175        C594   1.485       .  S
O177       C1312   1.274   1_554  A
O177       Al185   1.963       .  S
C178        O188   1.274       .  A
C178       O1299   1.252       .  A
C178       C1026   1.482       .  S
O179       C1298   1.252       .  A
O179       Al181   1.864       .  S
O180        C182   1.279       .  A
O180      Al1301   2.003   1_554  S
Al181       O189   1.998       .  S
Al181       O191   1.879       .  S
Al181      O1300   1.991       .  S
Al181      O1310   1.770       .  S
C182        O195   1.253       .  A
C182        C565   1.484       .  S
O183        C193   1.274       .  A
O183       Al185   1.983       .  S
O184        C197   1.274       .  A
O184       Al194   1.972       .  S
Al185       O198   1.873       .  S
Al185       O195   1.862       .  S
Al185       O190   1.760       .  S
O186        C193   1.247       .  A
O186       Al194   1.833       .  S
O187        C196   1.252       .  A
O187      Al1314   1.846       .  S
O188       Al194   1.960       .  S
O189        C196   1.281       .  A
O190       Al194   1.764       .  S
O190      Al1301   1.769   1_554  S
O191        C192   1.260       .  A
C192       O1297   1.273       .  A
C192        C549   1.485       .  S
C193        C901   1.470       .  S
Al194      O1307   1.853   1_554  S
C196        C885   1.499       .  S
C197        O198   1.256       .  A
C197        C658   1.486       .  S
O199        C214   1.254       .  A
O199       Al207   1.872       .  S
C200        O210   1.255   1_556  A
C200        O201   1.274   1_556  A
C200       C1650   1.492       .  S
O201      Al1323   1.957       .  S
O202        C204   1.249       .  A
O202       Al203   1.817       .  S
Al203       O213   1.978       .  S
Al203      O1321   1.955       .  S
Al203      O1331   1.846       .  S
Al203      O1332   1.768       .  S
C204        O217   1.275       .  A
C204        C789   1.473       .  S
O205        C215   1.249       .  A
O205       Al207   1.845       .  S
O206        C219   1.258       .  A
O206       Al216   1.868       .  S
Al207       O217   1.987       .  S
Al207      O1340   1.948       .  S
Al207      O1332   1.755       .  S
O208       C1335   1.278   1_554  A
O208       Al216   1.990       .  S
O209        C218   1.279       .  A
O209       Al216   1.987       .  S
O210       Al216   1.872       .  S
O211        C218   1.254       .  A
O211      Al1323   1.846       .  S
O212       Al216   1.766       .  S
O212      Al1323   1.765       .  S
O212      Al1327   1.753   1_554  S
O213        C214   1.272       .  A
C214        C597   1.490       .  S
C215       O1328   1.278       .  A
C215        C498   1.483       .  S
C218        C773   1.470       .  S
C219        O220   1.271       .  A
C219        C514   1.477       .  S
O220      Al1327   1.946   1_554  S
O221        C236   1.276       .  A
O221       Al229   1.974       .  S
C222        O232   1.271       .  A
C222        O223   1.251       .  A
C222        C501   1.496       .  S
O223       Al225   1.874       .  S
O224        C226   1.278       .  A
O224       Al225   1.988       .  S
Al225       O233   2.000       .  S
Al225       O235   1.858       .  S
Al225       O234   1.764       .  S
C226        O239   1.257       .  A
C226        C485   1.511       .  S
O227        C237   1.281       .  A
O227       Al229   2.012       .  S
O228        C241   1.272       .  A
O228       Al238   1.981       .  S
Al229       O242   1.879       .  S
Al229       O239   1.862       .  S
Al229       O234   1.757       .  S
O230        C237   1.248       .  A
O230       Al238   1.841       .  S
O231        C240   1.258       .  A
O231       Al238   1.851       .  S
O232       Al238   1.942       .  S
O233        C240   1.283       .  A
O234       Al238   1.768       .  S
O235        C236   1.253       .  A
C236        C674   1.483       .  S
C237        C466   1.469       .  S
C240        C453   1.498       .  S
C241        O242   1.255       .  A
C241        C546   1.492       .  S
O243        C258   1.246       .  A
O243       Al251   1.859       .  S
C244        O254   1.256       .  A
C244        O245   1.280       .  A
C244       C1602   1.489   1_554  S
O245      Al1367   1.983       .  S
O246        C248   1.242       .  A
O246       Al247   1.806       .  S
Al247       O257   1.990       .  S
Al247      O1365   1.979       .  S
Al247      O1375   1.869       .  S
Al247      O1376   1.761       .  S
C248        O261   1.280       .  A
C248        C709   1.483       .  S
O249        C259   1.252       .  A
O249       Al251   1.875       .  S
O250        C263   1.262       .  A
O250       Al260   1.877       .  S
Al251       O261   2.020       .  S
Al251      O1384   1.986       .  S
Al251      O1376   1.755       .  S
O252       C1379   1.280       .  A
O252       Al260   1.994   1_556  S
O253        C262   1.281       .  A
O253       Al260   2.006       .  S
O254       Al260   1.861       .  S
O255        C262   1.252       .  A
O255      Al1367   1.856       .  S
O256       Al260   1.769       .  S
O256      Al1367   1.756       .  S
O256      Al1371   1.752   1_554  S
O257        C258   1.279       .  A
C258        C946   1.503       .  S
C259       O1372   1.273       .  A
C259        C434   1.485       .  S
C262        C693   1.492       .  S
C263        O264   1.281       .  A
C263       C1077   1.492       .  S
O264      Al1371   1.988   1_554  S
O265        C280   1.275       .  A
O265       Al273   1.980       .  S
C266        O276   1.274       .  A
C266        O267   1.250       .  A
C266        C437   1.485       .  S
O267       Al269   1.861       .  S
O268        C270   1.283       .  A
O268       Al269   2.005       .  S
Al269       O277   1.998       .  S
Al269       O279   1.852       .  S
Al269       O278   1.756       .  S
C270        O283   1.252       .  A
C270        C533   1.492       .  S
O271        C281   1.281       .  A
O271       Al273   2.016       .  S
O272        C285   1.274       .  A
O272       Al282   1.988   1_565  S
Al273       O286   1.869       .  S
Al273       O283   1.855       .  S
Al273       O278   1.754       .  S
O274        C281   1.248       .  A
O274       Al282   1.842       .  S
O275        C284   1.256       .  A
O275       Al282   1.847       .  S
O276       Al282   1.953       .  S
O277        C284   1.284       .  A
O278       Al282   1.761       .  S
O279        C280   1.251       .  A
C280        C754   1.484       .  S
C281       C1061   1.470       .  S
C284       C1045   1.495       .  S
C285        O286   1.253   1_565  A
C285        C418   1.484       .  S
O287       C1422   1.273   1_554  A
O287       Al295   1.957       .  S
C288        O298   1.272       .  A
C288       O1409   1.250       .  A
C288        C373   1.482       .  S
O289       C1408   1.251       .  A
O289       Al291   1.859       .  S
O290        C292   1.277       .  A
O290      Al1411   1.985   1_554  S
Al291       O299   1.976       .  S
Al291       O301   1.866       .  S
Al291      O1410   1.969       .  S
Al291      O1420   1.767       .  S
C292        O305   1.254       .  A
C292       C1106   1.477       .  S
O293        C303   1.275       .  A
O293       Al295   1.994       .  S
O294        C307   1.276       .  A
O294       Al304   1.993       .  S
Al295       O308   1.874       .  S
Al295       O305   1.861       .  S
Al295       O300   1.760       .  S
O296        C303   1.243       .  A
O296       Al304   1.837       .  S
O297        C306   1.252       .  A
O297      Al1424   1.848       .  S
O298       Al304   1.952       .  S
O299        C306   1.277       .  A
O300       Al304   1.758       .  S
O300      Al1411   1.767   1_554  S
O301        C302   1.258       .  A
C302       O1407   1.273       .  A
C302        C421   1.479       .  S
C303        C402   1.458       .  S
Al304      O1417   1.860   1_554  S
C306        C386   1.478       .  S
C307        O308   1.256       .  A
C307        C818   1.492       .  S
O309        C324   1.261       .  A
O309       Al317   1.887       .  S
C310        O320   1.247       .  A
C310        O311   1.269       .  A
C310        C837   1.464       .  S
O311       Al313   1.950       .  S
O312        C314   1.245       .  A
O312       Al313   1.828       .  S
Al313       O321   1.848       .  S
Al313       O323   1.979       .  S
Al313       O322   1.767       .  S
C314        O327   1.276       .  A
C314        C405   1.458       .  S
O315        C325   1.254       .  A
O315       Al317   1.860       .  S
O316        C329   1.254       .  A
O316       Al326   1.864       .  S
Al317       O330   1.983       .  S
Al317       O327   1.994       .  S
Al317       O322   1.766       .  S
O318        C325   1.274       .  A
O318       Al326   1.967       .  S
O319        C328   1.279       .  A
O319       Al326   1.981       .  S
O320       Al326   1.841       .  S
O321        C328   1.256       .  A
O322       Al326   1.768       .  S
O323        C324   1.274       .  A
C324        C354   1.500       .  S
C325        C613   1.485       .  S
C328        C389   1.476       .  S
C329        O330   1.278       .  A
C329        C581   1.486       .  S
O331        C346   1.253       .  A
O331       Al339   1.863       .  S
C332        O342   1.258       .  A
C332        O333   1.269       .  A
C332        C562   1.508       .  S
O333       Al335   1.949       .  S
O334        C336   1.246       .  A
O334       Al335   1.847       .  S
Al335       O343   1.869       .  S
Al335       O345   1.968       .  S
Al335       O344   1.764       .  S
C336        O349   1.276       .  A
C336        C469   1.469       .  S
O337        C347   1.252       .  A
O337       Al339   1.854       .  S
O338        C351   1.260       .  A
O338       Al348   1.886       .  S
Al339       O352   1.956       .  S
Al339       O349   1.994       .  S
Al339       O344   1.760       .  S
O340        C347   1.276       .  A
O340       Al348   1.981       .  S
O341        C350   1.281       .  A
O341       Al348   1.985       .  S
O342       Al348   1.885       .  S
O343        C350   1.258       .  A
O344       Al348   1.766       .  S
O345        C346   1.272       .  A
C346        C517   1.480       .  S
C347        C370   1.474       .  S
C350        C450   1.497       .  S
C351        O352   1.272       .  A
C351        C357   1.492       .  S
C353        C354   1.414       .  A
C353        C358   1.411       .  A
C353        H360   1.082       .  S
C354        C355   1.418       .  A
C355        C356   1.412       .  A
C355        C362   1.518       .  S
C356        C357   1.410       .  A
C356        H361   1.083       .  S
C357        C358   1.414       .  A
C358        C359   1.520       .  S
C359        F363   1.385       .  S
C359        F364   1.382       .  S
C359        F365   1.383       .  S
C362        F366   1.381       .  S
C362        F367   1.383       .  S
C362        F368   1.385       .  S
C369        C370   1.402       .  A
C369        C374   1.409       .  A
C369        H376   1.084       .  S
C370        C371   1.416       .  A
C371        C372   1.403       .  A
C371        C378   1.511       .  S
C372        C373   1.400       .  A
C372       H1497   1.082       .  S
C373        C374   1.423       .  A
C374        C375   1.519       .  S
C375        F379   1.385       .  S
C375        F380   1.384   1_554  S
C375        F381   1.383       .  S
H377       C1492   1.079       .  S
C378        F382   1.376       .  S
C378        F383   1.381       .  S
C378       F1504   1.380       .  S
F384       C1498   1.382       .  S
C385        C386   1.410       .  A
C385        C390   1.407       .  A
C385        H392   1.083       .  S
C386        C387   1.412       .  A
C387        C388   1.409       .  A
C387        C394   1.518       .  S
C388        C389   1.410       .  A
C388        H393   1.083       .  S
C389        C390   1.409       .  A
C390        C391   1.516       .  S
C391        F395   1.384       .  S
C391        F396   1.383       .  S
C391        F397   1.383       .  S
C394        F398   1.384       .  S
C394        F399   1.382       .  S
C394        F400   1.385       .  S
C401        C402   1.405       .  A
C401        C406   1.402       .  A
C401        H408   1.084       .  S
C402        C403   1.411       .  A
C403        C404   1.406       .  A
C403        C410   1.518       .  S
C404        C405   1.406       .  A
C404        H409   1.084       .  S
C405        C406   1.407       .  A
C406        C407   1.517       .  S
C407        F411   1.385       .  S
C407        F412   1.383       .  S
C407        F413   1.382       .  S
C410        F414   1.382       .  S
C410        F415   1.383       .  S
C410        F416   1.385       .  S
C417        C418   1.412       .  A
C417        C422   1.402       .  A
C417        H424   1.086       .  S
C418        C419   1.409       .  A
C419        C420   1.408       .  A
C419        C426   1.516       .  S
C420        C421   1.412       .  A
C420        H425   1.086       .  S
C421        C422   1.409       .  A
C422       C1543   1.520       .  S
C423       C1542   1.519       .  S
C423        F427   1.385       .  S
C423        F428   1.384       .  S
C423        F429   1.382       .  S
C426        F430   1.383       .  S
C426        F431   1.382       .  S
C426        F432   1.385       .  S
C433        C434   1.402       .  A
C433        C438   1.414       .  A
C433        H440   1.084       .  S
C434        C435   1.421       .  A
C435        C436   1.398       .  A
C435        C442   1.508       .  S
C436        C437   1.395       .  A
C436        H441   1.083       .  S
C437        C438   1.427       .  A
C438        C439   1.520       .  S
C439        F443   1.385       .  S
C439        F444   1.384       .  S
C439        F445   1.382       .  S
C442        F446   1.379       .  S
C442        F447   1.376       .  S
C442        F448   1.385       .  S
C449        C450   1.414       .  A
C449        C454   1.416       .  A
C449        H456   1.082       .  S
C450        C451   1.415       .  A
C451        C452   1.409       .  A
C451        C458   1.519       .  S
C452        C453   1.412       .  A
C452        H457   1.082       .  S
C453        C454   1.415       .  A
C454        C455   1.517       .  S
C455        F459   1.385       .  S
C455        F460   1.383       .  S
C455        F461   1.383       .  S
C458        F462   1.384       .  S
C458        F463   1.383       .  S
C458        F464   1.385       .  S
C465        C466   1.407       .  A
C465       C1590   1.411       .  A
C465        H472   1.084       .  S
C466       C1587   1.416       .  A
C467        C468   1.402       .  A
C467       C1586   1.422   1_554  A
C467        C474   1.513       .  S
C468        C469   1.396       .  A
C468        H473   1.086       .  S
C469        C470   1.420       .  A
C470       C1585   1.413   1_554  A
C470       C1591   1.520       .  S
C471       C1590   1.517       .  S
C471        F475   1.384       .  S
C471        F476   1.383       .  S
C471       F1597   1.382       .  S
C474        F478   1.380   1_554  S
C474        F479   1.384       .  S
C474        F480   1.382   1_554  S
F477       C1591   1.379       .  S
C481        C482   1.406       .  A
C481        C486   1.413       .  A
C481        H488   1.083       .  S
C482       C1364   1.484       .  S
C482        C483   1.405       .  A
C483        C484   1.412       .  A
C483        C490   1.517       .  S
C484        C485   1.422       .  A
C484        H489   1.081       .  S
C485        C486   1.422       .  A
C486        C487   1.519       .  S
C487        F491   1.385       .  S
C487        F492   1.381       .  S
C487        F493   1.381       .  S
C490        F495   1.383       .  S
C490        F496   1.384       .  S
C490       F1614   1.384       .  S
F494       C1610   1.383       .  S
C497        C498   1.394       .  A
C497        C502   1.409       .  A
C497        H504   1.082       .  S
C498        C499   1.426       .  A
C499        C500   1.402       .  A
C499        C506   1.522       .  S
C500        C501   1.399       .  A
C500        H505   1.083       .  S
C501        C502   1.433       .  A
C502        C503   1.518       .  S
C503        F508   1.380       .  S
C503        F509   1.385       .  S
C503       F1627   1.382       .  S
C506        F510   1.382       .  S
C506        F511   1.381       .  S
C506        F512   1.385       .  S
F507       C1623   1.382       .  S
C513        C514   1.410       .  A
C513        C518   1.406       .  A
C513        H520   1.083       .  S
C514        C515   1.412       .  A
C515        C516   1.403       .  A
C515        C522   1.520       .  S
C516        C517   1.411       .  A
C516        H521   1.083       .  S
C517        C518   1.410       .  A
C518        C519   1.516       .  S
C519        F523   1.384       .  S
C519        F524   1.382       .  S
C519        F525   1.384       .  S
C522        F526   1.382       .  S
C522        F527   1.384       .  S
C522        F528   1.385       .  S
C529        C530   1.401       .  A
C529        C534   1.409       .  A
C529        H536   1.081       .  S
C530       C1320   1.506       .  S
C530        C531   1.435       .  A
C531        C532   1.413       .  A
C531       C1658   1.517       .  S
C532        C533   1.394       .  A
C532        H537   1.080       .  S
C533        C534   1.428       .  A
C534        C535   1.521       .  S
C535        F539   1.385       .  S
C535        F540   1.379       .  S
C535        F541   1.382       .  S
C538       C1651   1.517       .  S
C538        F542   1.381       .  S
C538        F543   1.380       .  S
C538        F544   1.385       .  S
C545        C546   1.412       .  A
C545        C550   1.404       .  A
C545        H552   1.082       .  S
C546        C547   1.414       .  A
C547        C548   1.413       .  A
C547        C554   1.518       .  S
C548        C549   1.412       .  A
C548        H553   1.083       .  S
C549        C550   1.411       .  A
C550        C551   1.519       .  S
C551        F555   1.385       .  S
C551        F556   1.383       .  S
C551        F557   1.382       .  S
C554        F558   1.384       .  S
C554        F559   1.382       .  S
C554       F1680   1.385       .  S
F560       C1674   1.385       .  S
C561        C562   1.417       .  A
C561        C566   1.412       .  A
C561        H568   1.082       .  S
C562        C563   1.426       .  A
C563        C564   1.412       .  A
C563        C570   1.520       .  S
C564        C565   1.404       .  A
C564        H569   1.084       .  S
C565        C566   1.408       .  A
C566        C567   1.513       .  S
C567        F571   1.385       .  S
C567        F572   1.384       .  S
C567        F573   1.379       .  S
C570        F574   1.383       .  S
C570        F575   1.380       .  S
C570        F576   1.385       .  S
C577        C578   1.402       .  A
C577        C582   1.413       .  A
C577        H584   1.083       .  S
C578        C579   1.439       .  A
C579        C580   1.405       .  A
C579        C586   1.516       .  S
C580        C581   1.387       .  A
C580        H585   1.084       .  S
C581        C582   1.427       .  A
C582        C583   1.517       .  S
C583        F587   1.384       .  S
C583        F588   1.381       .  S
C583        F589   1.378       .  S
C586        F590   1.378       .  S
C586        F591   1.379       .  S
C586        F592   1.385       .  S
C593        C594   1.411       .  A
C593        C598   1.409       .  A
C593        H600   1.082       .  S
C594        C595   1.408       .  A
C595        C596   1.405       .  A
C595        C602   1.511       .  S
C596        C597   1.413       .  A
C596        H601   1.081       .  S
C597        C598   1.413       .  A
C598       C1719   1.516       .  S
C599       C1718   1.515       .  S
C599        F603   1.385   1_556  S
C599        F604   1.383       .  S
C599        F605   1.384   1_556  S
C602        F606   1.382       .  S
C602        F607   1.381       .  S
C602        F608   1.385       .  S
C609        C610   1.415       .  A
C609        C614   1.409       .  A
C609        H616   1.083       .  S
C610        C611   1.419       .  A
C611        C612   1.407       .  A
C611        C618   1.521       .  S
C612        C613   1.409       .  A
C612        H617   1.084       .  S
C613        C614   1.410       .  A
C614        C615   1.518       .  S
C615        F619   1.381       .  S
C615        F620   1.384       .  S
C615        F621   1.384       .  S
C618        F622   1.383       .  S
C618        F623   1.384       .  S
C618        F624   1.385       .  S
C625        C626   1.419       .  A
C625       C1750   1.416       .  A
C625        H632   1.081       .  S
C626        C627   1.418       .  A
C627       C1748   1.416   1_655  A
C627        C634   1.520       .  S
C628        C629   1.413   1_655  A
C628       C1747   1.413       .  A
C628        H633   1.083       .  S
C629        C630   1.413       .  A
C630       C1745   1.415   1_554  A
C630        C631   1.517       .  S
C631        F635   1.384   1_554  S
C631        F636   1.383       .  S
C631        F637   1.383       .  S
C634        F638   1.382   1_655  S
C634        F639   1.383       .  S
C634        F640   1.384   1_655  S
C641        C642   1.399       .  A
C641        C646   1.404       .  A
C641        H648   1.085       .  S
C642        C643   1.423   1_655  A
C643        C644   1.404       .  A
C643        C650   1.517       .  S
C644        C645   1.399       .  A
C644        H649   1.085       .  S
C645        C646   1.422   1_455  A
C646        C647   1.517       .  S
C647        F651   1.381       .  S
C647        F652   1.383       .  S
C647        F653   1.383   1_655  S
C650        F654   1.383   1_455  S
C650        F655   1.382       .  S
C650        F656   1.382       .  S
C657        C658   1.412       .  A
C657        C662   1.407       .  A
C657        H664   1.083       .  S
C658        C659   1.410       .  A
C659        C660   1.408       .  A
C659        C666   1.518       .  S
C660        C661   1.414       .  A
C660        H665   1.083       .  S
C661        C662   1.413       .  A
C662        C663   1.518       .  S
C663        F667   1.385       .  S
C663        F668   1.384       .  S
C663        F669   1.383       .  S
C666        F671   1.384   1_554  S
C666        F672   1.381       .  S
C666       F1790   1.385   1_554  S
F670       C1786   1.385       .  S
C673        C674   1.410       .  A
C673        C678   1.410       .  A
C673        H680   1.084       .  S
C674        C675   1.408       .  A
C675        C676   1.408       .  A
C675        C682   1.517       .  S
C676        C677   1.417       .  A
C676        H681   1.084       .  S
C677        C678   1.416       .  A
C678        C679   1.516       .  S
C679        F683   1.385       .  S
C679        F684   1.383       .  S
C679        F685   1.382       .  S
C682        F686   1.384       .  S
C682        F687   1.382       .  S
C682        F688   1.385       .  S
C689        C690   1.421       .  A
C689        C694   1.411       .  A
C689        H696   1.082       .  S
C690        C691   1.419       .  A
C691        C692   1.416       .  A
C691        C698   1.517       .  S
C692        C693   1.411       .  A
C692        H697   1.083       .  S
C693        C694   1.408       .  A
C694        C695   1.516       .  S
C695        F699   1.385       .  S
C695        F700   1.383       .  S
C695        F701   1.381       .  S
C698        F702   1.384       .  S
C698        F703   1.382       .  S
C698        F704   1.385       .  S
C705        C706   1.405       .  A
C705        C710   1.414       .  A
C705        H712   1.083       .  S
C706        C707   1.410       .  A
C707        C708   1.401       .  A
C707        C714   1.518       .  S
C708        C709   1.409       .  A
C708        H713   1.077       .  S
C709        C710   1.418       .  A
C710        C711   1.509       .  S
C711        F715   1.383       .  S
C711        F716   1.373       .  S
C711        F717   1.383       .  S
C714        F718   1.385       .  S
C714        F719   1.380       .  S
C714        F720   1.383       .  S
C721        C722   1.417       .  A
C721        C726   1.406       .  A
C721        H728   1.083       .  S
C722        C723   1.412       .  A
C723        C724   1.417       .  A
C723        C730   1.515       .  S
C724        C725   1.414       .  A
C724        H729   1.083   1_455  S
C725        C726   1.408       .  A
C726        C727   1.517       .  S
C727        F731   1.384       .  S
C727        F732   1.382       .  S
C727        F733   1.382       .  S
C730        F734   1.383       .  S
C730        F735   1.383       .  S
C730        F736   1.384       .  S
C737        C738   1.416       .  A
C737        C742   1.409       .  A
C737        H744   1.082       .  S
C738        C739   1.416       .  A
C739        C740   1.410       .  A
C739        C746   1.520       .  S
C740        C741   1.415       .  A
C740        H745   1.082       .  S
C741        C742   1.413       .  A
C742        C743   1.520       .  S
C743        F747   1.385       .  S
C743        F748   1.383       .  S
C743        F749   1.381       .  S
C746        F750   1.384       .  S
C746        F751   1.383       .  S
C746        F752   1.385       .  S
C753        C754   1.415       .  A
C753        C758   1.407       .  A
C753        H760   1.082       .  S
C754        C755   1.408       .  A
C755        C756   1.404       .  A
C755        C762   1.517       .  S
C756        C757   1.415       .  A
C756        H761   1.082       .  S
C757        C758   1.410       .  A
C758        C759   1.518       .  S
C759        F763   1.384       .  S
C759        F764   1.384       .  S
C759        F765   1.382       .  S
C762        F766   1.384       .  S
C762        F767   1.381       .  S
C762        F768   1.385       .  S
C769        C770   1.402       .  A
C769        C774   1.407       .  A
C769        H776   1.084       .  S
C770        C771   1.418       .  A
C771        C772   1.409       .  A
C771        C778   1.520       .  S
C772        C773   1.402       .  A
C772        H777   1.083       .  S
C773        C774   1.415       .  A
C774        C775   1.518       .  S
C775        F779   1.385       .  S
C775        F780   1.384       .  S
C775        F781   1.382       .  S
C778        F782   1.383       .  S
C778        F783   1.383       .  S
C778        F784   1.384       .  S
C785        C786   1.410       .  A
C785        C790   1.400       .  A
C785        H792   1.085       .  S
C786        C787   1.411       .  A
C787        C788   1.403       .  A
C787        C794   1.513       .  S
C788        C789   1.413       .  A
C788        H793   1.085       .  S
C789        C790   1.410       .  A
C790        C791   1.514       .  S
C791        F795   1.385       .  S
C791        F796   1.377       .  S
C791        F797   1.381       .  S
C794        F798   1.383       .  S
C794        F799   1.375       .  S
C794        F800   1.385       .  S
C801        C802   1.421       .  A
C801        C806   1.408       .  A
C801        H808   1.082       .  S
C802        C803   1.414       .  A
C803        C804   1.408       .  A
C803        C810   1.517       .  S
C804        C805   1.410       .  A
C804        H809   1.084       .  S
C805        C806   1.404       .  A
C806        C807   1.518       .  S
C807        F811   1.384       .  S
C807        F812   1.383       .  S
C807        F813   1.384       .  S
C810        F814   1.383       .  S
C810        F815   1.384       .  S
C810        F816   1.385       .  S
C817        C818   1.410       .  A
C817        C822   1.408       .  A
C817        H824   1.084       .  S
C818        C819   1.411       .  A
C819        C820   1.414       .  A
C819       C1946   1.516       .  S
C820        C821   1.416       .  A
C820        H825   1.083       .  S
C821        C822   1.415       .  A
C822        C823   1.520       .  S
C823        F827   1.385       .  S
C823        F828   1.384       .  S
C823        F829   1.382       .  S
C826       C1939   1.517       .  S
C826        F830   1.384       .  S
C826        F831   1.383       .  S
C826        F832   1.385       .  S
C833        C834   1.405       .  A
C833        C838   1.406       .  A
C833        H840   1.084       .  S
C834        C835   1.415       .  A
C835        C836   1.401       .  A
C835        C842   1.509       .  S
C836        C837   1.396       .  A
C836        H841   1.081       .  S
C837        C838   1.415       .  A
C838        C839   1.518       .  S
C839        F843   1.385       .  S
C839        F844   1.382       .  S
C839        F845   1.384       .  S
C842        F846   1.382       .  S
C842        F847   1.373       .  S
C842        F848   1.378       .  S
C849        C850   1.414       .  A
C849        C854   1.403       .  A
C849        H856   1.082       .  S
C850        C851   1.413       .  A
C851        C852   1.407       .  A
C851        C858   1.518       .  S
C852        C853   1.409       .  A
C852        H857   1.084       .  S
C853        C854   1.407       .  A
C854        C855   1.519       .  S
C855        F859   1.385       .  S
C855        F860   1.384       .  S
C855        F861   1.382       .  S
C858        F862   1.383       .  S
C858        F863   1.382       .  S
C858        F864   1.385       .  S
C865        C866   1.422       .  A
C865        C870   1.413       .  A
C865        H872   1.081       .  S
C866        C867   1.418       .  A
C867        C868   1.413       .  A
C867        C874   1.518       .  S
C868        C869   1.411       .  A
C868        H873   1.083       .  S
C869        C870   1.406       .  A
C870        C871   1.517       .  S
C871        F875   1.384       .  S
C871        F876   1.384       .  S
C871        F877   1.383       .  S
C874        F878   1.384       .  S
C874        F879   1.383       .  S
C874        F880   1.385       .  S
C881        C882   1.415       .  A
C881        C886   1.411       .  A
C881        H888   1.082       .  S
C882        C883   1.411       .  A
C883        C884   1.411       .  A
C883        C890   1.519       .  S
C884        C885   1.418       .  A
C884        H889   1.082       .  S
C885        C886   1.412       .  A
C886        C887   1.517       .  S
C887        F891   1.384       .  S
C887        F892   1.384       .  S
C887        F893   1.382       .  S
C890        F894   1.383       .  S
C890        F895   1.383       .  S
C890        F896   1.385       .  S
C897        C898   1.403       .  A
C897        C902   1.405       .  A
C897        H904   1.085       .  S
C898        C899   1.418       .  A
C899        C900   1.403       .  A
C899        C906   1.510       .  S
C900        C901   1.402       .  A
C900        H905   1.084       .  S
C901        C902   1.416       .  A
C902        C903   1.511       .  S
C903        F907   1.384       .  S
C903        F908   1.376       .  S
C903        F909   1.381       .  S
C906        F910   1.379       .  S
C906        F911   1.381       .  S
C906        F912   1.384       .  S
C913        C914   1.411       .  A
C913        C918   1.400       .  A
C913        H920   1.082       .  S
C914        C915   1.410       .  A
C915        C916   1.408       .  A
C915        C922   1.516       .  S
C916        C917   1.413       .  A
C916        H921   1.083   1_455  S
C917        C918   1.410       .  A
C918        C919   1.520       .  S
C919        F923   1.385       .  S
C919        F924   1.382       .  S
C919        F925   1.384       .  S
C922        F926   1.383       .  S
C922        F927   1.384       .  S
C922        F928   1.385       .  S
C929        C930   1.408       .  A
C929        C934   1.413       .  A
C929        H936   1.083       .  S
C930        C931   1.409       .  A
C931        C932   1.412       .  A
C931        C938   1.517       .  S
C932        C933   1.416       .  A
C932        H937   1.084       .  S
C933        C934   1.413       .  A
C934        C935   1.514       .  S
C935        F939   1.382       .  S
C935        F940   1.381       .  S
C935        F941   1.384       .  S
C938        F942   1.383       .  S
C938        F943   1.383       .  S
C938        F944   1.385       .  S
C945        C946   1.397       .  A
C945        C950   1.410       .  A
C945        H952   1.082       .  S
C946        C947   1.438       .  A
C947        C948   1.408       .  A
C947        C954   1.519       .  S
C948        C949   1.393       .  A
C948        H953   1.082       .  S
C949        C950   1.433       .  A
C950        C951   1.520       .  S
C951        F955   1.385       .  S
C951        F956   1.377       .  S
C951        F957   1.379       .  S
C954        F959   1.379       .  S
C954        F960   1.385       .  S
C954       F2078   1.378       .  S
F958       C2074   1.384   1_554  S
C961        C962   1.409   1_445  A
C961        C966   1.408       .  A
C961        H968   1.084       .  S
C962        C963   1.412       .  A
C963       C2084   1.408   1_554  A
C963        C970   1.516       .  S
C964        C965   1.415   1_665  A
C964       C2083   1.412       .  A
C964        H969   1.083       .  S
C965       C2086   1.413       .  A
C966       C2085   1.413   1_554  A
C966        C967   1.515       .  S
C967        F971   1.385       .  S
C967        F972   1.381       .  S
C967        F973   1.382   1_554  S
C970        F974   1.383       .  S
C970        F975   1.383       .  S
C970       F2096   1.384   1_554  S
F976       C2090   1.385       .  S
C977        C978   1.403   1_565  A
C977        C982   1.407   1_455  A
C977        H984   1.085       .  S
C978        C979   1.424   1_455  A
C979        C980   1.405       .  A
C979        C986   1.518       .  S
C980        C981   1.399   1_545  A
C980        H985   1.085       .  S
C981        C982   1.420       .  A
C982        C983   1.519   1_655  S
C983        F987   1.383       .  S
C983        F988   1.382       .  S
C983        F989   1.384   1_455  S
C986        F990   1.382       .  S
C986        F991   1.383       .  S
C986        F992   1.383       .  S
C993        C994   1.413       .  A
C993        C998   1.402       .  A
C993       H1000   1.083       .  S
C994        C995   1.412       .  A
C995        C996   1.408       .  A
C995       C1002   1.517       .  S
C996        C997   1.411       .  A
C996       H1001   1.082       .  S
C997        C998   1.410       .  A
C998        C999   1.520       .  S
C999       F1003   1.385       .  S
C999       F1004   1.384       .  S
C999       F1005   1.382       .  S
C1002      F1006   1.384       .  S
C1002      F1007   1.383       .  S
C1002      F1008   1.384       .  S
C1009      C1010   1.410       .  A
C1009      C1014   1.411       .  A
C1009      H1016   1.084       .  S
C1010      C1011   1.408       .  A
C1011      C1012   1.401       .  A
C1011      C1018   1.513       .  S
C1012      C1013   1.409       .  A
C1012      H1017   1.082       .  S
C1013      C1014   1.414       .  A
C1014      C1015   1.517       .  S
C1015      F1019   1.385       .  S
C1015      F1020   1.382       .  S
C1015      F1021   1.383       .  S
C1018      F1022   1.383       .  S
C1018      F1023   1.383       .  S
C1018      F1024   1.385       .  S
C1025      C1026   1.399       .  A
C1025      C1030   1.405       .  A
C1025      H1032   1.083       .  S
C1026      C1027   1.423       .  A
C1027      C1028   1.409       .  A
C1027      C2154   1.520   1_554  S
C1028      C1029   1.401       .  A
C1028      H1033   1.084       .  S
C1029      C1030   1.419       .  A
C1030      C1031   1.511       .  S
C1031      F1035   1.384       .  S
C1031      F1036   1.382       .  S
C1031      F1037   1.376       .  S
C1034      C2147   1.520       .  S
C1034      F1038   1.384       .  S
C1034      F1039   1.379       .  S
C1034      F1040   1.385       .  S
C1041      C1042   1.413   1_545  A
C1041      C1046   1.410       .  A
C1041      H1048   1.084       .  S
C1042      C1043   1.415       .  A
C1043      C1044   1.411       .  A
C1043      C1050   1.519       .  S
C1044      C1045   1.415   1_565  A
C1044      H1049   1.083       .  S
C1045      C1046   1.414       .  A
C1046      C1047   1.518       .  S
C1047      F1051   1.385       .  S
C1047      F1052   1.382       .  S
C1047      F1053   1.384       .  S
C1050      F1054   1.383       .  S
C1050      F1055   1.383       .  S
C1050      F1056   1.385       .  S
C1057      C1058   1.409   1_545  A
C1057      C1062   1.401       .  A
C1057      H1064   1.085       .  S
C1058      C1059   1.408       .  A
C1059      C2180   1.409   1_554  A
C1059      C1066   1.516   1_554  S
C1060      C1061   1.407   1_565  A
C1060      C2179   1.411       .  A
C1060      H1065   1.084       .  S
C1061      C2182   1.414       .  A
C1062      C2181   1.410   1_554  A
C1062      C1063   1.516       .  S
C1063      F1067   1.384       .  S
C1063      F1069   1.381       .  S
C1063      F2188   1.383       .  S
C1066      F1071   1.384   1_556  S
C1066      F2190   1.383       .  S
C1066      F2192   1.384       .  S
F1068      C2183   1.382       .  S
F1070      C2186   1.384       .  S
F1072      C2186   1.384       .  S
C1073      C1074   1.402       .  A
C1073      C1078   1.404       .  A
C1073      H1080   1.070       .  S
C1074      C1075   1.412       .  A
C1075      C1076   1.413       .  A
C1075      C1082   1.516       .  S
C1076      C1077   1.411       .  A
C1076      H1081   1.081       .  S
C1077      C1078   1.418       .  A
C1078      C1079   1.516       .  S
C1079      F1083   1.385   1_554  S
C1079      F1084   1.376   1_554  S
C1079      F1085   1.382   1_554  S
C1082      F1086   1.384       .  S
C1082      F1087   1.383       .  S
C1082      F1088   1.384       .  S
C1089      C1090   1.395       .  A
C1089      C1094   1.410       .  A
C1089      H1096   1.083       .  S
C1090      C1091   1.433       .  A
C1091      C1092   1.409       .  A
C1091      C1098   1.522       .  S
C1092      C1093   1.398       .  A
C1092      H1097   1.082       .  S
C1093      C1094   1.435       .  A
C1094      C1095   1.517       .  S
C1095      F1099   1.386       .  S
C1095      F1100   1.378       .  S
C1095      F1101   1.380       .  S
C1098      F1102   1.383       .  S
C1098      F1103   1.381       .  S
C1098      F1104   1.385       .  S
C1105      C1106   1.404       .  A
C1105      C1110   1.412       .  A
C1105      H1112   1.083       .  S
C1106      C1107   1.417       .  A
C1107      C1108   1.402       .  A
C1107      C1114   1.512       .  S
C1108      C1109   1.400       .  A
C1108      H1113   1.080       .  S
C1109      C1110   1.420       .  A
C1110      C1111   1.519       .  S
C1111      F1115   1.385       .  S
C1111      F1116   1.382       .  S
C1111      F1117   1.384       .  S
C1114      F1118   1.380   1_554  S
C1114      F1119   1.378       .  S
C1114      F1120   1.383       .  S
O1121      C1136   1.255   1_565  A
O1121     Al1129   1.878       .  S
C1122      O1132   1.257       .  A
C1122      O1123   1.267       .  A
C1122      C2229   1.497       .  S
O1123     Al1125   1.945       .  S
O1124      C1126   1.247       .  A
O1124     Al1125   1.833       .  S
Al1125     O1133   1.851       .  S
Al1125     O1135   1.972   1_565  S
Al1125     O1134   1.764       .  S
C1126      O1139   1.282       .  A
C1126      C2178   1.468       .  S
O1127      C1137   1.253       .  A
O1127     Al1129   1.864       .  S
O1128      C1141   1.251       .  A
O1128     Al1138   1.863       .  S
Al1129     O1142   1.974       .  S
Al1129     O1139   2.013       .  S
Al1129     O1134   1.757       .  S
O1130      C1137   1.280       .  A
O1130     Al1138   2.002       .  S
O1131      C1140   1.285       .  A
O1131     Al1138   2.007       .  S
O1132     Al1138   1.875       .  S
O1133      C1140   1.258       .  A
O1134     Al1138   1.761       .  S
O1135      C1136   1.270       .  A
C1136      C2194   1.490       .  S
C1137      C2149   1.491       .  S
C1140      C2162   1.502       .  S
C1141      O1142   1.280       .  A
C1141      C2210   1.494       .  S
O1143      C1158   1.260   1_545  A
O1143     Al1151   1.886       .  S
C1144      O1154   1.253   1_655  A
C1144      O1145   1.267       .  A
C1144      C2117   1.476       .  S
O1145     Al1147   1.938   1_655  S
O1146      C1148   1.250       .  A
O1146     Al1147   1.849       .  S
Al1147     O1155   1.855       .  S
Al1147     O1157   1.962   1_545  S
Al1147     O1156   1.770       .  S
C1148      O1161   1.284       .  A
C1148      C2098   1.483       .  S
O1149      C1159   1.256       .  A
O1149     Al1151   1.868       .  S
O1150      C1163   1.253       .  A
O1150     Al1160   1.860       .  S
Al1151     O1164   2.004       .  S
Al1151     O1161   2.019       .  S
Al1151     O1156   1.759       .  S
O1152      C1159   1.272       .  A
O1152     Al1160   1.971       .  S
O1153      C1162   1.281       .  A
O1153     Al1160   1.986       .  S
O1154     Al1160   1.862       .  S
O1155      C1162   1.258       .  A
O1156     Al1160   1.767       .  S
O1157      C1158   1.269       .  A
C1158      C2133   1.489       .  S
C1159      C2053   1.487       .  S
C1162      C2085   1.483       .  S
C1163      O1164   1.283       .  A
C1163      C2069   1.498       .  S
O1165      C1180   1.251       .  A
O1165     Al1173   1.867       .  S
C1166      O1176   1.256       .  A
C1166      O1167   1.281       .  A
C1166      C1989   1.500       .  S
O1167     Al1169   1.984       .  S
O1168      C1170   1.238       .  A
O1168     Al1169   1.807       .  S
Al1169     O1177   1.854       .  S
Al1169     O1179   1.997       .  S
Al1169     O1178   1.757       .  S
C1170      O1183   1.274       .  A
C1170      C2018   1.461       .  S
O1171      C1181   1.251       .  A
O1171     Al1173   1.858       .  S
O1172      C1185   1.263       .  A
O1172     Al1182   1.874       .  S
Al1173     O1186   1.986       .  S
Al1173     O1183   1.996       .  S
Al1173     O1178   1.750       .  S
O1174      C1181   1.275       .  A
O1174     Al1182   1.992       .  S
O1175      C1184   1.279       .  A
O1175     Al1182   1.996       .  S
O1176     Al1182   1.862       .  S
O1177      C1184   1.253       .  A
O1178     Al1182   1.776       .  S
O1179      C1180   1.280       .  A
C1180      C2213   1.506       .  S
C1181      C2034   1.493       .  S
C1184      C2002   1.490       .  S
C1185      O1186   1.281       .  A
C1185      C2130   1.492       .  S
O1187      C1202   1.275       .  A
O1187     Al1195   1.970       .  S
C1188      O1198   1.269       .  A
C1188      O1189   1.255   1_455  A
C1188      C2037   1.484       .  S
O1189     Al1191   1.872       .  S
O1190      C1192   1.275       .  A
O1190     Al1191   1.978       .  S
Al1191     O1199   1.987       .  S
Al1191     O1201   1.867       .  S
Al1191     O1200   1.766       .  S
C1192      O1205   1.257       .  A
C1192      C1954   1.479       .  S
O1193      C1203   1.280       .  A
O1193     Al1195   2.006       .  S
O1194      C1207   1.272       .  A
O1194     Al1204   1.967   1_545  S
Al1195     O1208   1.864       .  S
Al1195     O1205   1.859       .  S
Al1195     O1200   1.754       .  S
O1196      C1203   1.249       .  A
O1196     Al1204   1.857       .  S
O1197      C1206   1.257       .  A
O1197     Al1204   1.855       .  S
O1198     Al1204   1.938   1_455  S
O1199      C1206   1.279       .  A
O1200     Al1204   1.762       .  S
O1201      C1202   1.256       .  A
C1202      C1941   1.489       .  S
C1203      C2101   1.480       .  S
C1206      C2082   1.496       .  S
C1207      O1208   1.254   1_545  A
C1207      C1970   1.478       .  S
O1209      C1224   1.275       .  A
O1209     Al1217   1.957       .  S
C1210      O1220   1.278       .  A
C1210      O1211   1.255       .  A
C1210      C1925   1.500       .  S
O1211     Al1213   1.855       .  S
O1212      C1214   1.274       .  A
O1212     Al1213   1.980       .  S
Al1213     O1221   1.981       .  S
Al1213     O1223   1.865       .  S
Al1213     O1222   1.774       .  S
C1214      O1227   1.252       .  A
C1214      C2114   1.483       .  S
O1215      C1225   1.272       .  A
O1215     Al1217   1.983       .  S
O1216      C1229   1.276       .  A
O1216     Al1226   1.981       .  S
Al1217     O1230   1.860       .  S
Al1217     O1227   1.851       .  S
Al1217     O1222   1.751       .  S
O1218      C1225   1.241       .  A
O1218     Al1226   1.798       .  S
O1219      C1228   1.253       .  A
O1219     Al1226   1.845       .  S
O1220     Al1226   1.966       .  S
O1221      C1228   1.277       .  A
O1222     Al1226   1.753       .  S
O1223      C1224   1.261       .  A
C1224      C1973   1.472       .  S
C1225      C1906   1.462       .  S
C1228      C1890   1.486       .  S
C1229      O1230   1.252       .  A
C1229      C1877   1.489       .  S
O1231      C1246   1.274       .  A
O1231     Al1239   1.923       .  S
C1232      O1242   1.262       .  A
C1232      O1233   1.259       .  A
C1232      C2050   1.478       .  S
O1233     Al1235   1.889       .  S
O1234      C1236   1.267       .  A
O1234     Al1235   1.969       .  S
Al1235     O1243   1.953       .  S
Al1235     O1245   1.888       .  S
Al1235     O1244   1.784       .  S
C1236      O1249   1.241       .  A
C1236      C1842   1.490       .  S
O1237      C1247   1.269       .  A
O1237     Al1239   1.947       .  S
O1238      C1251   1.270       .  A
O1238     Al1248   1.940       .  S
Al1239     O1252   1.866       .  S
Al1239     O1249   1.837       .  S
Al1239     O1244   1.777       .  S
O1240      C1247   1.249       .  A
O1240     Al1248   1.852       .  S
O1241      C1250   1.252       .  A
O1241     Al1248   1.866       .  S
O1242     Al1248   1.915       .  S
O1243      C1250   1.268       .  A
O1244     Al1248   1.793       .  S
O1245      C1246   1.264       .  A
C1246      C1858   1.497       .  S
C1247      C1826   1.457       .  S
C1250      C1810   1.511       .  S
C1251      O1252   1.254       .  A
C1251      C1797   1.491       .  S
O1253      C1268   1.276       .  A
O1253     Al1261   1.976       .  S
C1254      O1264   1.269       .  A
C1254      O1255   1.258   1_655  A
C1254      C1730   1.500       .  S
O1255     Al1257   1.878       .  S
O1256      C1258   1.282       .  A
O1256     Al1257   2.014       .  S
Al1257     O1265   2.009       .  S
Al1257     O1267   1.868       .  S
Al1257     O1266   1.759       .  S
C1258      O1271   1.254       .  A
C1258      C1986   1.513       .  S
O1259      C1269   1.280       .  A
O1259     Al1261   2.006       .  S
O1260      C1273   1.272       .  A
O1260     Al1270   1.971       .  S
Al1261     O1274   1.871       .  S
Al1261     O1271   1.859       .  S
Al1261     O1266   1.754       .  S
O1262      C1269   1.248       .  A
O1262     Al1270   1.842       .  S
O1263      C1272   1.258       .  A
O1263     Al1270   1.861       .  S
O1264     Al1270   1.947   1_655  S
O1265      C1272   1.285       .  A
O1266     Al1270   1.764       .  S
O1267      C1268   1.257       .  A
C1268      C1781   1.494       .  S
C1269      C1765   1.472       .  S
C1272      C1749   1.517       .  S
C1273      O1274   1.254       .  A
C1273      C1861   1.489       .  S
O1275      C1290   1.252       .  A
O1275     Al1283   1.863       .  S
C1276      O1286   1.252   1_455  A
C1276      O1277   1.276       .  A
C1276      C1845   1.485       .  S
O1277     Al1279   1.972   1_455  S
O1278      C1280   1.245       .  A
O1278     Al1279   1.845       .  S
Al1279     O1287   1.863       .  S
Al1279     O1289   1.999       .  S
Al1279     O1288   1.759       .  S
C1280      O1293   1.279       .  A
C1280      C1762   1.481       .  S
O1281      C1291   1.257       .  A
O1281     Al1283   1.860       .  S
O1282      C1295   1.254       .  A
O1282     Al1292   1.862       .  S
Al1283     O1296   1.994       .  S
Al1283     O1293   2.015       .  S
Al1283     O1288   1.761       .  S
O1284      C1291   1.279       .  A
O1284     Al1292   1.995       .  S
O1285      C1294   1.281       .  A
O1285     Al1292   1.996       .  S
O1286     Al1292   1.859       .  S
O1287      C1294   1.255       .  A
O1288     Al1292   1.764       .  S
O1289      C1290   1.283       .  A
C1290      C1698   1.503       .  S
C1291      C1922   1.487       .  S
C1294      C1746   1.501       .  S
C1295      O1296   1.279       .  A
C1295      C1714   1.483       .  S
O1297     Al1305   1.958       .  S
C1298      O1308   1.276       .  A
C1298      C2146   1.495       .  S
O1299     Al1301   1.852   1_554  S
O1300      C1302   1.278       .  A
Al1301     O1309   1.997       .  S
Al1301     O1311   1.864       .  S
C1302      O1315   1.255       .  A
C1302      C1685   1.488       .  S
O1303      C1313   1.273       .  A
O1303     Al1305   1.987       .  S
O1304      C1317   1.274       .  A
O1304     Al1314   1.978       .  S
Al1305     O1318   1.873       .  S
Al1305     O1315   1.855       .  S
Al1305     O1310   1.762       .  S
O1306      C1313   1.246       .  A
O1306     Al1314   1.825       .  S
O1307      C1316   1.253       .  A
O1308     Al1314   1.973       .  S
O1309      C1316   1.281       .  A
O1310     Al1314   1.764       .  S
O1311      C1312   1.257       .  A
C1312      C1669   1.478       .  S
C1313      C2021   1.461       .  S
C1316      C2005   1.493       .  S
C1317      O1318   1.255       .  A
C1317      C1778   1.487       .  S
O1319      C1334   1.251       .  A
O1319     Al1327   1.869   1_554  S
C1320      O1330   1.253       .  A
C1320      O1321   1.273       .  A
O1322      C1324   1.246       .  A
O1322     Al1323   1.800   1_556  S
Al1323     O1333   1.972   1_554  S
C1324      O1337   1.276       .  A
C1324      C1909   1.465       .  S
O1325      C1335   1.249       .  A
O1325     Al1327   1.854       .  S
O1326      C1339   1.259       .  A
O1326     Al1336   1.879       .  S
Al1327     O1337   1.986       .  S
O1328     Al1336   1.985       .  S
O1329      C1338   1.282       .  A
O1329     Al1336   1.991       .  S
O1330     Al1336   1.879       .  S
O1331      C1338   1.256       .  A
O1332     Al1336   1.766       .  S
O1333      C1334   1.271   1_556  A
C1334      C1717   1.494   1_554  S
C1335      C1618   1.494       .  S
C1338      C1893   1.484       .  S
C1339      O1340   1.270       .  A
C1339      C1634   1.482       .  S
O1341      C1356   1.275       .  A
O1341     Al1349   1.977       .  S
C1342      O1352   1.274       .  A
C1342      O1343   1.253       .  A
C1342      C1621   1.496       .  S
O1343     Al1345   1.871       .  S
O1344      C1346   1.281       .  A
O1344     Al1345   1.997       .  S
Al1345     O1353   1.995       .  S
Al1345     O1355   1.859       .  S
Al1345     O1354   1.758       .  S
C1346      O1359   1.259       .  A
C1346      C1605   1.513       .  S
O1347      C1357   1.282       .  A
O1347     Al1349   2.020       .  S
O1348      C1361   1.274       .  A
O1348     Al1358   1.987       .  S
Al1349     O1362   1.870       .  S
Al1349     O1359   1.866       .  S
Al1349     O1354   1.755       .  S
O1350      C1357   1.247       .  A
O1350     Al1358   1.836       .  S
O1351      C1360   1.255       .  A
O1351     Al1358   1.846       .  S
O1352     Al1358   1.951       .  S
O1353      C1360   1.282       .  A
O1354     Al1358   1.765       .  S
O1355      C1356   1.253       .  A
C1356      C1794   1.479       .  S
C1357      C1586   1.476       .  S
C1360      C1573   1.494       .  S
C1361      O1362   1.252       .  A
C1361      C1666   1.484       .  S
O1363      C1378   1.246       .  A
O1363     Al1371   1.858       .  S
C1364      O1374   1.256       .  A
C1364      O1365   1.280       .  A
O1366      C1368   1.241       .  A
O1366     Al1367   1.798   1_556  S
Al1367     O1377   1.991       .  S
C1368      O1381   1.278       .  A
C1368      C1829   1.480       .  S
O1369      C1379   1.249       .  A
O1369     Al1371   1.867       .  S
O1370      C1383   1.258       .  A
O1370     Al1380   1.863       .  S
Al1371     O1381   2.011       .  S
O1372     Al1380   1.988       .  S
O1373      C1382   1.277       .  A
O1373     Al1380   1.985       .  S
O1374     Al1380   1.861       .  S
O1375      C1382   1.257       .  A
O1376     Al1380   1.776       .  S
O1377      C1378   1.280   1_554  A
C1378      C2066   1.504       .  S
C1379      C1554   1.501       .  S
C1382      C1813   1.494       .  S
C1383      O1384   1.281       .  A
C1383      C2197   1.488       .  S
O1385      C1400   1.271       .  A
O1385     Al1393   1.967       .  S
C1386      O1396   1.273       .  A
C1386      O1387   1.252       .  A
C1386      C1557   1.492       .  S
O1387     Al1389   1.871       .  S
O1388      C1390   1.284       .  A
O1388     Al1389   1.996       .  S
Al1389     O1397   1.995       .  S
Al1389     O1399   1.872       .  S
Al1389     O1398   1.755       .  S
C1390      O1403   1.254       .  A
C1390      C1653   1.494       .  S
O1391      C1401   1.277       .  A
O1391     Al1393   2.001       .  S
O1392      C1405   1.276       .  A
O1392     Al1402   1.995   1_565  S
Al1393     O1406   1.867       .  S
Al1393     O1403   1.855       .  S
Al1393     O1398   1.756       .  S
O1394      C1401   1.249       .  A
O1394     Al1402   1.851       .  S
O1395      C1404   1.255       .  A
O1395     Al1402   1.851       .  S
O1396     Al1402   1.959       .  S
O1397      C1404   1.282       .  A
O1398     Al1402   1.766       .  S
O1399      C1400   1.255       .  A
C1400      C1874   1.491       .  S
C1401      C2181   1.466       .  S
C1404      C2165   1.497       .  S
C1405      O1406   1.253   1_565  A
C1405      C1538   1.485       .  S
O1407     Al1415   1.961       .  S
C1408      O1418   1.274       .  A
C1408      C1493   1.483       .  S
O1409     Al1411   1.859   1_554  S
O1410      C1412   1.275       .  A
Al1411     O1419   1.981       .  S
Al1411     O1421   1.859       .  S
C1412      O1425   1.256       .  A
C1412      C2226   1.466       .  S
O1413      C1423   1.272       .  A
O1413     Al1415   1.987       .  S
O1414      C1427   1.276       .  A
O1414     Al1424   1.981       .  S
Al1415     O1428   1.870       .  S
Al1415     O1425   1.861       .  S
Al1415     O1420   1.765       .  S
O1416      C1423   1.241       .  A
O1416     Al1424   1.819       .  S
O1417      C1426   1.258       .  A
O1418     Al1424   1.960       .  S
O1419      C1426   1.280       .  A
O1420     Al1424   1.758       .  S
O1421      C1422   1.254       .  A
C1422      C1541   1.477       .  S
C1423      C1522   1.457       .  S
C1426      C1506   1.488       .  S
C1427      O1428   1.257       .  A
C1427      C1938   1.488       .  S
O1429      C1444   1.263       .  A
O1429     Al1437   1.892       .  S
C1430      O1440   1.245       .  A
C1430      O1431   1.270       .  A
C1430      C1957   1.474       .  S
O1431     Al1433   1.954       .  S
O1432      C1434   1.243       .  A
O1432     Al1433   1.820       .  S
Al1433     O1441   1.851       .  S
Al1433     O1443   1.973       .  S
Al1433     O1442   1.762       .  S
C1434      O1447   1.275       .  A
C1434      C1525   1.455       .  S
O1435      C1445   1.252       .  A
O1435     Al1437   1.854       .  S
O1436      C1449   1.255       .  A
O1436     Al1446   1.865       .  S
Al1437     O1450   1.990       .  S
Al1437     O1447   1.992       .  S
Al1437     O1442   1.770       .  S
O1438      C1445   1.274       .  A
O1438     Al1446   1.969       .  S
O1439      C1448   1.281       .  A
O1439     Al1446   1.991       .  S
O1440     Al1446   1.846       .  S
O1441      C1448   1.257       .  A
O1442     Al1446   1.765       .  S
O1443      C1444   1.273       .  A
C1444      C1474   1.502       .  S
C1445      C1733   1.479       .  S
C1448      C1509   1.489       .  S
C1449      O1450   1.279       .  A
C1449      C1701   1.487       .  S
O1451      C1466   1.254       .  A
O1451     Al1459   1.867       .  S
C1452      O1462   1.257       .  A
C1452      O1453   1.270       .  A
C1452      C1682   1.500       .  S
O1453     Al1455   1.950       .  S
O1454      C1456   1.244       .  A
O1454     Al1455   1.834       .  S
Al1455     O1463   1.846       .  S
Al1455     O1465   1.984       .  S
Al1455     O1464   1.764       .  S
C1456      O1469   1.280       .  A
C1456      C1589   1.470       .  S
O1457      C1467   1.256       .  A
O1457     Al1459   1.867       .  S
O1458      C1471   1.258       .  A
O1458     Al1468   1.876       .  S
Al1459     O1472   1.975       .  S
Al1459     O1469   2.013       .  S
Al1459     O1464   1.755       .  S
O1460      C1467   1.278       .  A
O1460     Al1468   1.990       .  S
O1461      C1470   1.282       .  A
O1461     Al1468   1.995       .  S
O1462     Al1468   1.880       .  S
O1463      C1470   1.255       .  A
O1464     Al1468   1.765       .  S
O1465      C1466   1.274       .  A
C1466      C1637   1.493       .  S
C1467      C1490   1.491       .  S
C1470      C1570   1.496       .  S
C1471      O1472   1.278       .  A
C1471      C1477   1.496       .  S
C1473      C1474   1.414       .  A
C1473      C1478   1.413       .  A
C1473      H1480   1.082       .  S
C1474      C1475   1.419       .  A
C1475      C1476   1.413       .  A
C1475      C1482   1.520       .  S
C1476      C1477   1.411       .  A
C1476      H1481   1.082       .  S
C1477      C1478   1.412       .  A
C1478      C1479   1.517       .  S
C1479      F1483   1.384       .  S
C1479      F1484   1.383       .  S
C1479      F1485   1.384       .  S
C1482      F1486   1.381       .  S
C1482      F1487   1.383       .  S
C1482      F1488   1.385       .  S
C1489      C1490   1.408       .  A
C1489      C1494   1.412       .  A
C1489      H1496   1.083       .  S
C1490      C1491   1.419       .  A
C1491      C1492   1.408       .  A
C1491      C1498   1.513       .  S
C1492      C1493   1.401       .  A
C1493      C1494   1.416       .  A
C1494      C1495   1.517       .  S
C1495      F1499   1.385       .  S
C1495      F1500   1.383       .  S
C1495      F1501   1.382       .  S
C1498      F1502   1.375       .  S
C1498      F1503   1.382       .  S
C1505      C1506   1.411       .  A
C1505      C1510   1.412       .  A
C1505      H1512   1.083       .  S
C1506      C1507   1.414       .  A
C1507      C1508   1.409       .  A
C1507      C1514   1.518       .  S
C1508      C1509   1.410       .  A
C1508      H1513   1.083       .  S
C1509      C1510   1.415       .  A
C1510      C1511   1.518       .  S
C1511      F1515   1.385       .  S
C1511      F1516   1.383       .  S
C1511      F1517   1.382       .  S
C1514      F1518   1.382       .  S
C1514      F1519   1.383       .  S
C1514      F1520   1.385       .  S
C1521      C1522   1.411       .  A
C1521      C1526   1.403       .  A
C1521      H1528   1.083       .  S
C1522      C1523   1.401       .  A
C1523      C1524   1.401       .  A
C1523      C1530   1.515       .  S
C1524      C1525   1.410       .  A
C1524      H1529   1.080       .  S
C1525      C1526   1.405       .  A
C1526      C1527   1.517       .  S
C1527      F1531   1.384       .  S
C1527      F1532   1.383       .  S
C1527      F1533   1.384       .  S
C1530      F1534   1.383       .  S
C1530      F1535   1.384       .  S
C1530      F1536   1.384       .  S
C1537      C1538   1.414       .  A
C1537      C1542   1.400       .  A
C1537      H1544   1.080       .  S
C1538      C1539   1.410       .  A
C1539      C1540   1.410       .  A
C1539      C1546   1.517       .  S
C1540      C1541   1.414       .  A
C1540      H1545   1.085       .  S
C1541      C1542   1.406       .  A
C1543      F1547   1.385       .  S
C1543      F1548   1.383       .  S
C1543      F1549   1.383       .  S
C1546      F1550   1.384       .  S
C1546      F1551   1.382       .  S
C1546      F1552   1.385       .  S
C1553      C1554   1.401       .  A
C1553      C1558   1.410       .  A
C1553      H1560   1.083       .  S
C1554      C1555   1.436       .  A
C1555      C1556   1.409       .  A
C1555      C1562   1.524       .  S
C1556      C1557   1.395       .  A
C1556      H1561   1.083       .  S
C1557      C1558   1.427       .  A
C1558      C1559   1.519       .  S
C1559      F1563   1.385       .  S
C1559      F1564   1.382       .  S
C1559      F1565   1.382       .  S
C1562      F1566   1.383       .  S
C1562      F1567   1.380       .  S
C1562      F1568   1.385       .  S
C1569      C1570   1.416       .  A
C1569      C1574   1.411       .  A
C1569      H1576   1.083       .  S
C1570      C1571   1.414       .  A
C1571      C1572   1.410       .  A
C1571      C1578   1.518       .  S
C1572      C1573   1.414       .  A
C1572      H1577   1.083       .  S
C1573      C1574   1.413       .  A
C1574      C1575   1.518       .  S
C1575      F1579   1.385       .  S
C1575      F1580   1.383       .  S
C1575      F1581   1.383       .  S
C1578      F1582   1.383       .  S
C1578      F1583   1.383       .  S
C1578      F1584   1.385       .  S
C1585      C1586   1.405       .  A
C1585      H1592   1.084       .  S
C1587      C1588   1.406       .  A
C1587      C1594   1.517       .  S
C1588      C1589   1.404       .  A
C1588      H1593   1.085       .  S
C1589      C1590   1.415       .  A
C1591      F1595   1.385   1_554  S
C1591      F1596   1.383   1_554  S
C1594      F1598   1.383       .  S
C1594      F1599   1.384       .  S
C1594      F1600   1.383       .  S
C1601      C1602   1.408       .  A
C1601      C1606   1.413       .  A
C1601      H1608   1.084       .  S
C1602      C1603   1.406       .  A
C1603      C1604   1.414       .  A
C1603      C1610   1.515   1_556  S
C1604      C1605   1.422       .  A
C1604      H1609   1.082       .  S
C1605      C1606   1.423       .  A
C1606      C1607   1.518       .  S
C1607      F1611   1.385       .  S
C1607      F1612   1.381       .  S
C1607      F1613   1.381       .  S
C1610      F1615   1.383       .  S
C1610      F1616   1.384       .  S
C1617      C1618   1.398       .  A
C1617      C1622   1.410       .  A
C1617      H1624   1.081       .  S
C1618      C1619   1.432       .  A
C1619      C1620   1.406       .  A
C1619      C1626   1.523       .  S
C1620      C1621   1.397       .  A
C1620      H1625   1.082       .  S
C1621      C1622   1.431       .  A
C1622      C1623   1.520       .  S
C1623      F1628   1.378       .  S
C1623      F1629   1.385       .  S
C1626      F1630   1.383       .  S
C1626      F1631   1.382       .  S
C1626      F1632   1.385       .  S
C1633      C1634   1.410       .  A
C1633      C1638   1.412       .  A
C1633      H1640   1.084       .  S
C1634      C1635   1.409       .  A
C1635      C1636   1.404       .  A
C1635      C1642   1.519       .  S
C1636      C1637   1.414       .  A
C1636      H1641   1.083       .  S
C1637      C1638   1.416       .  A
C1638      C1639   1.518       .  S
C1639      F1643   1.385       .  S
C1639      F1644   1.382       .  S
C1639      F1645   1.384       .  S
C1642      F1646   1.382       .  S
C1642      F1647   1.384       .  S
C1642      F1648   1.385       .  S
C1649      C1650   1.397       .  A
C1649      C1654   1.410       .  A
C1649      H1656   1.084   1_556  S
C1650      C1651   1.428       .  A
C1651      C1652   1.406       .  A
C1652      C1653   1.396       .  A
C1652      H1657   1.083       .  S
C1653      C1654   1.433       .  A
C1654      C1655   1.522       .  S
C1655      F1659   1.385       .  S
C1655      F1660   1.381       .  S
C1655      F1661   1.382       .  S
C1658      F1662   1.381       .  S
C1658      F1663   1.384       .  S
C1658      F1664   1.385       .  S
C1665      C1666   1.412       .  A
C1665      C1670   1.400       .  A
C1665      H1672   1.081       .  S
C1666      C1667   1.410       .  A
C1667      C1668   1.411       .  A
C1667      C1674   1.517       .  S
C1668      C1669   1.413       .  A
C1668      H1673   1.083       .  S
C1669      C1670   1.408       .  A
C1670      C1671   1.519       .  S
C1671      F1675   1.385       .  S
C1671      F1676   1.384       .  S
C1671      F1677   1.382   1_556  S
C1674      F1678   1.384       .  S
C1674      F1679   1.382       .  S
C1681      C1682   1.417       .  A
C1681      C1686   1.411       .  A
C1681      H1688   1.082       .  S
C1682      C1683   1.419       .  A
C1683      C1684   1.407       .  A
C1683      C1690   1.520       .  S
C1684      C1685   1.409       .  A
C1684      H1689   1.083       .  S
C1685      C1686   1.409       .  A
C1686      C1687   1.515       .  S
C1687      F1691   1.385       .  S
C1687      F1692   1.383       .  S
C1687      F1693   1.383       .  S
C1690      F1694   1.383       .  S
C1690      F1695   1.382       .  S
C1690      F1696   1.385       .  S
C1697      C1698   1.398       .  A
C1697      C1702   1.408       .  A
C1697      H1704   1.082       .  S
C1698      C1699   1.434       .  A
C1699      C1700   1.408       .  A
C1699      C1706   1.514       .  S
C1700      C1701   1.392       .  A
C1700      H1705   1.084       .  S
C1701      C1702   1.429       .  A
C1702      C1703   1.516       .  S
C1703      F1707   1.384       .  S
C1703      F1708   1.379       .  S
C1703      F1709   1.377       .  S
C1706      F1710   1.381       .  S
C1706      F1711   1.381       .  S
C1706      F1712   1.385       .  S
C1713      C1714   1.408       .  A
C1713      C1718   1.409       .  A
C1713      H1720   1.084       .  S
C1714      C1715   1.407       .  A
C1715      C1716   1.405       .  A
C1715      C1722   1.510       .  S
C1716      C1717   1.415       .  A
C1716      H1721   1.082       .  S
C1717      C1718   1.416       .  A
C1719      F1723   1.385       .  S
C1719      F1724   1.383       .  S
C1719      F1725   1.383       .  S
C1722      F1726   1.380       .  S
C1722      F1727   1.383       .  S
C1722      F1728   1.385       .  S
C1729      C1730   1.418       .  A
C1729      C1734   1.409       .  A
C1729      H1736   1.081       .  S
C1730      C1731   1.424       .  A
C1731      C1732   1.407       .  A
C1731      C1738   1.522       .  S
C1732      C1733   1.405       .  A
C1732      H1737   1.083       .  S
C1733      C1734   1.406       .  A
C1734      C1735   1.517       .  S
C1735      F1739   1.382       .  S
C1735      F1740   1.384       .  S
C1735      F1741   1.385       .  S
C1738      F1742   1.382       .  S
C1738      F1743   1.383       .  S
C1738      F1744   1.385       .  S
C1745      C1746   1.415   1_455  A
C1745      H1752   1.082       .  S
C1746      C1747   1.416   1_556  A
C1747      C1754   1.517       .  S
C1748      C1749   1.420       .  A
C1748      H1753   1.081       .  S
C1749      C1750   1.418   1_455  A
C1750      C1751   1.519       .  S
C1751      F1755   1.385       .  S
C1751      F1756   1.383   1_655  S
C1751      F1757   1.383       .  S
C1754      F1758   1.382       .  S
C1754      F1759   1.383       .  S
C1754      F1760   1.385       .  S
C1761      C1762   1.404       .  A
C1761      C1766   1.411       .  A
C1761      H1768   1.085       .  S
C1762      C1763   1.421   1_655  A
C1763      C1764   1.406       .  A
C1763      C1770   1.512       .  S
C1764      C1765   1.398       .  A
C1764      H1769   1.086       .  S
C1765      C1766   1.421   1_455  A
C1766      C1767   1.517       .  S
C1767      F1771   1.381       .  S
C1767      F1772   1.381       .  S
C1767      F1773   1.383   1_655  S
C1770      F1774   1.383   1_455  S
C1770      F1775   1.381       .  S
C1770      F1776   1.383       .  S
C1777      C1778   1.411       .  A
C1777      C1782   1.408       .  A
C1777      H1784   1.082       .  S
C1778      C1779   1.409       .  A
C1779      C1780   1.410       .  A
C1779      C1786   1.517       .  S
C1780      C1781   1.416       .  A
C1780      H1785   1.083       .  S
C1781      C1782   1.415       .  A
C1782      C1783   1.519       .  S
C1783      F1787   1.385       .  S
C1783      F1788   1.384       .  S
C1783      F1789   1.382       .  S
C1786      F1791   1.384       .  S
C1786      F1792   1.381       .  S
C1793      C1794   1.407       .  A
C1793      C1798   1.406       .  A
C1793      H1800   1.083       .  S
C1794      C1795   1.406       .  A
C1795      C1796   1.409       .  A
C1795      C1802   1.517       .  S
C1796      C1797   1.418       .  A
C1796      H1801   1.084       .  S
C1797      C1798   1.418       .  A
C1798      C1799   1.518       .  S
C1799      F1803   1.385       .  S
C1799      F1804   1.383       .  S
C1799      F1805   1.382       .  S
C1802      F1806   1.384       .  S
C1802      F1807   1.383       .  S
C1802      F1808   1.384       .  S
C1809      C1810   1.419       .  A
C1809      C1814   1.411       .  A
C1809      H1816   1.082       .  S
C1810      C1811   1.421       .  A
C1811      C1812   1.415       .  A
C1811      C1818   1.518       .  S
C1812      C1813   1.411       .  A
C1812      H1817   1.083       .  S
C1813      C1814   1.411       .  A
C1814      C1815   1.519       .  S
C1815      F1819   1.384       .  S
C1815      F1820   1.383       .  S
C1815      F1821   1.383       .  S
C1818      F1822   1.384       .  S
C1818      F1823   1.383       .  S
C1818      F1824   1.385       .  S
C1825      C1826   1.407       .  A
C1825      C1830   1.413       .  A
C1825      H1832   1.083       .  S
C1826      C1827   1.405       .  A
C1827      C1828   1.397       .  A
C1827      C1834   1.516       .  S
C1828      C1829   1.410       .  A
C1828      H1833   1.082       .  S
C1829      C1830   1.416       .  A
C1830      C1831   1.509       .  S
C1831      F1835   1.382       .  S
C1831      F1836   1.375       .  S
C1831      F1837   1.383       .  S
C1834      F1838   1.385       .  S
C1834      F1839   1.380       .  S
C1834      F1840   1.384       .  S
C1841      C1842   1.416       .  A
C1841      C1846   1.409       .  A
C1841      H1848   1.083       .  S
C1842      C1843   1.410       .  A
C1843      C1844   1.414       .  A
C1843      C1850   1.515       .  S
C1844      C1845   1.411       .  A
C1844      H1849   1.081   1_455  S
C1845      C1846   1.407       .  A
C1846      C1847   1.516       .  S
C1847      F1851   1.384       .  S
C1847      F1852   1.384       .  S
C1847      F1853   1.383       .  S
C1850      F1854   1.383       .  S
C1850      F1855   1.384       .  S
C1850      F1856   1.384       .  S
C1857      C1858   1.418       .  A
C1857      C1862   1.408       .  A
C1857      H1864   1.082       .  S
C1858      C1859   1.417       .  A
C1859      C1860   1.406       .  A
C1859      C1866   1.521       .  S
C1860      C1861   1.412       .  A
C1860      H1865   1.082       .  S
C1861      C1862   1.410       .  A
C1862      C1863   1.520       .  S
C1863      F1867   1.384       .  S
C1863      F1868   1.384       .  S
C1863      F1869   1.382       .  S
C1866      F1870   1.384       .  S
C1866      F1871   1.383       .  S
C1866      F1872   1.385       .  S
C1873      C1874   1.415       .  A
C1873      C1878   1.409       .  A
C1873      H1880   1.082       .  S
C1874      C1875   1.414       .  A
C1875      C1876   1.406       .  A
C1875      C1882   1.519       .  S
C1876      C1877   1.413       .  A
C1876      H1881   1.082       .  S
C1877      C1878   1.409       .  A
C1878      C1879   1.516       .  S
C1879      F1883   1.384       .  S
C1879      F1884   1.384       .  S
C1879      F1885   1.382       .  S
C1882      F1886   1.384       .  S
C1882      F1887   1.381       .  S
C1882      F1888   1.385       .  S
C1889      C1890   1.411       .  A
C1889      C1894   1.407       .  A
C1889      H1896   1.084       .  S
C1890      C1891   1.414       .  A
C1891      C1892   1.409       .  A
C1891      C1898   1.517       .  S
C1892      C1893   1.411       .  A
C1892      H1897   1.084       .  S
C1893      C1894   1.413       .  A
C1894      C1895   1.518       .  S
C1895      F1899   1.385       .  S
C1895      F1900   1.383       .  S
C1895      F1901   1.382       .  S
C1898      F1902   1.383       .  S
C1898      F1903   1.381       .  S
C1898      F1904   1.385       .  S
C1905      C1906   1.411       .  A
C1905      C1910   1.400       .  A
C1905      H1912   1.085       .  S
C1906      C1907   1.409       .  A
C1907      C1908   1.397       .  A
C1907      C1914   1.514       .  S
C1908      C1909   1.410       .  A
C1908      H1913   1.083       .  S
C1909      C1910   1.406       .  A
C1910      C1911   1.511       .  S
C1911      F1915   1.381       .  S
C1911      F1916   1.370       .  S
C1911      F1917   1.383       .  S
C1914      F1918   1.383       .  S
C1914      F1919   1.376       .  S
C1914      F1920   1.384       .  S
C1921      C1922   1.411       .  A
C1921      C1926   1.410       .  A
C1921      H1928   1.083       .  S
C1922      C1923   1.408       .  A
C1923      C1924   1.410       .  A
C1923      C1930   1.518       .  S
C1924      C1925   1.419       .  A
C1924      H1929   1.082       .  S
C1925      C1926   1.414       .  A
C1926      C1927   1.515       .  S
C1927      F1931   1.385       .  S
C1927      F1932   1.383       .  S
C1927      F1933   1.381       .  S
C1930      F1934   1.383       .  S
C1930      F1935   1.382       .  S
C1930      F1936   1.385       .  S
C1937      C1938   1.413       .  A
C1937      C1942   1.407       .  A
C1937      H1944   1.082       .  S
C1938      C1939   1.411       .  A
C1939      C1940   1.408       .  A
C1940      C1941   1.413       .  A
C1940      H1945   1.083       .  S
C1941      C1942   1.413       .  A
C1942      C1943   1.519       .  S
C1943      F1947   1.385       .  S
C1943      F1948   1.383       .  S
C1943      F1949   1.382       .  S
C1946      F1950   1.384   1_554  S
C1946      F1951   1.382       .  S
C1946      F1952   1.385       .  S
C1953      C1954   1.405       .  A
C1953      C1958   1.406       .  A
C1953      H1960   1.083       .  S
C1954      C1955   1.417       .  A
C1955      C1956   1.406       .  A
C1955      C1962   1.514       .  S
C1956      C1957   1.402       .  A
C1956      H1961   1.079       .  S
C1957      C1958   1.416       .  A
C1958      C1959   1.519       .  S
C1959      F1963   1.385       .  S
C1959      F1964   1.382       .  S
C1959      F1965   1.383       .  S
C1962      F1966   1.383       .  S
C1962      F1967   1.376       .  S
C1962      F1968   1.381       .  S
C1969      C1970   1.411       .  A
C1969      C1974   1.400       .  A
C1969      H1976   1.083       .  S
C1970      C1971   1.411       .  A
C1971      C1972   1.406       .  A
C1971      C1978   1.517       .  S
C1972      C1973   1.410       .  A
C1972      H1977   1.084       .  S
C1973      C1974   1.409       .  A
C1974      C1975   1.520       .  S
C1975      F1979   1.384       .  S
C1975      F1980   1.384       .  S
C1975      F1981   1.383       .  S
C1978      F1982   1.384       .  S
C1978      F1983   1.382       .  S
C1978      F1984   1.384       .  S
C1985      C1986   1.422       .  A
C1985      C1990   1.415       .  A
C1985      H1992   1.081       .  S
C1986      C1987   1.416       .  A
C1987      C1988   1.416       .  A
C1987      C1994   1.517       .  S
C1988      C1989   1.415       .  A
C1988      H1993   1.083       .  S
C1989      C1990   1.409       .  A
C1990      C1991   1.517       .  S
C1991      F1995   1.385       .  S
C1991      F1996   1.383       .  S
C1991      F1997   1.382       .  S
C1994      F1998   1.383       .  S
C1994      F1999   1.382       .  S
C1994      F2000   1.385       .  S
C2001      C2002   1.412       .  A
C2001      C2006   1.411       .  A
C2001      H2008   1.083       .  S
C2002      C2003   1.411       .  A
C2003      C2004   1.414       .  A
C2003      C2010   1.517       .  S
C2004      C2005   1.415       .  A
C2004      H2009   1.083       .  S
C2005      C2006   1.412       .  A
C2006      C2007   1.517       .  S
C2007      F2011   1.384       .  S
C2007      F2012   1.383       .  S
C2007      F2013   1.382       .  S
C2010      F2014   1.383       .  S
C2010      F2015   1.383       .  S
C2010      F2016   1.385       .  S
C2017      C2018   1.401       .  A
C2017      C2022   1.403       .  A
C2017      H2024   1.084       .  S
C2018      C2019   1.419       .  A
C2019      C2020   1.401       .  A
C2019      C2026   1.512       .  S
C2020      C2021   1.399       .  A
C2020      H2025   1.084       .  S
C2021      C2022   1.413       .  A
C2022      C2023   1.508       .  S
C2023      F2027   1.383       .  S
C2023      F2028   1.381       .  S
C2023      F2029   1.377       .  S
C2026      F2030   1.381       .  S
C2026      F2031   1.378       .  S
C2026      F2032   1.385       .  S
C2033      C2034   1.416       .  A
C2033      C2038   1.405       .  A
C2033      H2040   1.081       .  S
C2034      C2035   1.413       .  A
C2035      C2036   1.412       .  A
C2035      C2042   1.517       .  S
C2036      C2037   1.413       .  A
C2036      H2041   1.082   1_455  S
C2037      C2038   1.409       .  A
C2038      C2039   1.520       .  S
C2039      F2043   1.384       .  S
C2039      F2044   1.383       .  S
C2039      F2045   1.384       .  S
C2042      F2046   1.383       .  S
C2042      F2047   1.383       .  S
C2042      F2048   1.384       .  S
C2049      C2050   1.406       .  A
C2049      C2054   1.406       .  A
C2049      H2056   1.081       .  S
C2050      C2051   1.409       .  A
C2051      C2052   1.410       .  A
C2051      C2058   1.516       .  S
C2052      C2053   1.414       .  A
C2052      H2057   1.083       .  S
C2053      C2054   1.413       .  A
C2054      C2055   1.515       .  S
C2055      F2059   1.380       .  S
C2055      F2060   1.378       .  S
C2055      F2061   1.385       .  S
C2058      F2062   1.383       .  S
C2058      F2063   1.383       .  S
C2058      F2064   1.385       .  S
C2065      C2066   1.396       .  A
C2065      C2070   1.409       .  A
C2065      H2072   1.082   1_556  S
C2066      C2067   1.435       .  A
C2067      C2068   1.411       .  A
C2067      C2074   1.521       .  S
C2068      C2069   1.395       .  A
C2068      H2073   1.083       .  S
C2069      C2070   1.434       .  A
C2070      C2071   1.519       .  S
C2071      F2075   1.385       .  S
C2071      F2076   1.379       .  S
C2071      F2077   1.375       .  S
C2074      F2079   1.380       .  S
C2074      F2080   1.385       .  S
C2081      C2082   1.412   1_445  A
C2081      C2086   1.408       .  A
C2081      H2088   1.083       .  S
C2082      C2083   1.416       .  A
C2083      C2090   1.518       .  S
C2084      C2085   1.409   1_665  A
C2084      H2089   1.084       .  S
C2086      C2087   1.512       .  S
C2087      F2091   1.385       .  S
C2087      F2092   1.383       .  S
C2087      F2093   1.381       .  S
C2090      F2094   1.381       .  S
C2090      F2095   1.383       .  S
C2097      C2098   1.403   1_565  A
C2097      C2102   1.411       .  A
C2097      H2104   1.085       .  S
C2098      C2099   1.424   1_455  A
C2099      C2100   1.408       .  A
C2099      C2106   1.515       .  S
C2100      C2101   1.400   1_545  A
C2100      H2105   1.085       .  S
C2101      C2102   1.422   1_655  A
C2102      C2103   1.516       .  S
C2103      F2107   1.384       .  S
C2103      F2108   1.383       .  S
C2103      F2109   1.383   1_455  S
C2106      F2110   1.382   1_655  S
C2106      F2111   1.382       .  S
C2106      F2112   1.384       .  S
C2113      C2114   1.414       .  A
C2113      C2118   1.401       .  A
C2113      H2120   1.082       .  S
C2114      C2115   1.411       .  A
C2115      C2116   1.406       .  A
C2115      C2122   1.518       .  S
C2116      C2117   1.410       .  A
C2116      H2121   1.080       .  S
C2117      C2118   1.409       .  A
C2118      C2119   1.520       .  S
C2119      F2123   1.385       .  S
C2119      F2124   1.383       .  S
C2119      F2125   1.383       .  S
C2122      F2126   1.383       .  S
C2122      F2127   1.383       .  S
C2122      F2128   1.384       .  S
C2129      C2130   1.412       .  A
C2129      C2134   1.412       .  A
C2129      H2136   1.083       .  S
C2130      C2131   1.413       .  A
C2131      C2132   1.405       .  A
C2131      C2138   1.512       .  S
C2132      C2133   1.408       .  A
C2132      H2137   1.082       .  S
C2133      C2134   1.414       .  A
C2134      C2135   1.517       .  S
C2135      F2139   1.385       .  S
C2135      F2140   1.382       .  S
C2135      F2141   1.383       .  S
C2138      F2142   1.383       .  S
C2138      F2143   1.383       .  S
C2138      F2144   1.385       .  S
C2145      C2146   1.401       .  A
C2145      C2150   1.412       .  A
C2145      H2152   1.083       .  S
C2146      C2147   1.426       .  A
C2147      C2148   1.413       .  A
C2148      C2149   1.401       .  A
C2148      H2153   1.083       .  S
C2149      C2150   1.423       .  A
C2150      C2151   1.513       .  S
C2151      F2155   1.385       .  S
C2151      F2156   1.382       .  S
C2151      F2157   1.377       .  S
C2154      F2158   1.384       .  S
C2154      F2159   1.379   1_556  S
C2154      F2160   1.385       .  S
C2161      C2162   1.416   1_545  A
C2161      C2166   1.411       .  A
C2161      H2168   1.083       .  S
C2162      C2163   1.417       .  A
C2163      C2164   1.414       .  A
C2163      C2170   1.518       .  S
C2164      C2165   1.414   1_565  A
C2164      H2169   1.084       .  S
C2165      C2166   1.412       .  A
C2166      C2167   1.517       .  S
C2167      F2171   1.385       .  S
C2167      F2172   1.383       .  S
C2167      F2173   1.383       .  S
C2170      F2174   1.384       .  S
C2170      F2175   1.383       .  S
C2170      F2176   1.385       .  S
C2177      C2178   1.404   1_545  A
C2177      C2182   1.406       .  A
C2177      H2184   1.085       .  S
C2178      C2179   1.416       .  A
C2179      C2186   1.519       .  S
C2180      C2181   1.410   1_565  A
C2180      H2185   1.083       .  S
C2182      C2183   1.516       .  S
C2183      F2187   1.383       .  S
C2183      F2189   1.383       .  S
C2186      F2191   1.383       .  S
C2193      C2194   1.412       .  A
C2193      C2198   1.406       .  A
C2193      H2200   1.082       .  S
C2194      C2195   1.413       .  A
C2195      C2196   1.410       .  A
C2195      C2202   1.517       .  S
C2196      C2197   1.412       .  A
C2196      H2201   1.083       .  S
C2197      C2198   1.410       .  A
C2198      C2199   1.513       .  S
C2199      F2203   1.385       .  S
C2199      F2204   1.380       .  S
C2199      F2205   1.384       .  S
C2202      F2206   1.382       .  S
C2202      F2207   1.383       .  S
C2202      F2208   1.385       .  S
C2209      C2210   1.390       .  A
C2209      C2214   1.404       .  A
C2209      H2216   1.083       .  S
C2210      C2211   1.431       .  A
C2211      C2212   1.414       .  A
C2211      C2218   1.521       .  S
C2212      C2213   1.402       .  A
C2212      H2217   1.083       .  S
C2213      C2214   1.438       .  A
C2214      C2215   1.520       .  S
C2215      F2219   1.385       .  S
C2215      F2220   1.375       .  S
C2215      F2221   1.378       .  S
C2218      F2222   1.383       .  S
C2218      F2223   1.382       .  S
C2218      F2224   1.385       .  S
C2225      C2226   1.401       .  A
C2225      C2230   1.405       .  A
C2225      H2232   1.084       .  S
C2226      C2227   1.403       .  A
C2227      C2228   1.407       .  A
C2227      C2234   1.517       .  S
C2228      C2229   1.418       .  A
C2228      H2233   1.082       .  S
C2229      C2230   1.425       .  A
C2230      C2231   1.522       .  S
C2231      F2235   1.385       .  S
C2231      F2236   1.383       .  S
C2231      F2237   1.382       .  S
C2234      F2238   1.384       .  S
C2234      F2239   1.383       .  S
C2234      F2240   1.384       .  S
